<BADGER-PROJECT FileVersion="1.0.0.0">
  <EXPERIMENT Name="2mass-reg-controllers">
<RLSimion FileVersion="1.0.0.0">
<RLSimion>
	<Log>
		<Log-Freq>0.25</Log-Freq>
		<Log-eval-episodes>true</Log-eval-episodes>
		<Log-training-episodes>false</Log-training-episodes>
	</Log>
	<World>
		<Num-Integration-Steps>4</Num-Integration-Steps>
		<Delta-T>0.01</Delta-T>
		<Dynamic-Model>
			<Model>
		<Wind-turbine>
			<Evaluation-Wind-Data>../config/world/wind-turbine/TurbSim-15.hh</Evaluation-Wind-Data>
			<Power-Set-Point>../config/world/wind-turbine/power-setpoint.txt</Power-Set-Point>
			<Training-Wind-Data>
				<Training-Wind-Data>../config/world/wind-turbine/TurbSim-12.hh</Training-Wind-Data>
			</Training-Wind-Data>
		</Wind-turbine>
		</Model>
		</Dynamic-Model>
	</World>
	<Experiment>
		<Random-Seed>1</Random-Seed>
		<Num-Episodes>1</Num-Episodes>
		<Eval-Freq>1</Eval-Freq>
		<Progress-Update-Freq>1.0</Progress-Update-Freq>
		<Episode-Length>150</Episode-Length>
	</Experiment>
	<SimGod>
		<Target-Function-Update-Freq>100</Target-Function-Update-Freq>
		<Gamma>0.9</Gamma>
		<Freeze-Target-Function>false</Freeze-Target-Function>
		<Use-Importance-Weights>false</Use-Importance-Weights>
		<Simion>
			<Type>
		<Controller>
			<FORKED-NODE Name="Controller" Alias="Controller">
			  <FORK-VALUE Name="Value-0">
			  	<Controller>
		<Vidal>
			<FORKED-NODE Name="A" Alias="Vidal-A">
			  <FORK-VALUE Name="Value-0">
			  	<A>0.5</A>
			  </FORK-VALUE>
			  <FORK-VALUE Name="Value-1">
			  	<A>0.4</A>
			  </FORK-VALUE>
			  <FORK-VALUE Name="Value-2">
			  	<A>0.6</A>
			  </FORK-VALUE>
			</FORKED-NODE>
			<FORKED-NODE Name="K_alpha" Alias="Vidal-K_alpha">
			  <FORK-VALUE Name="Value-0">
			  	<K_alpha>5000000</K_alpha>
			  </FORK-VALUE>
			  <FORK-VALUE Name="Value-1">
			  	<K_alpha>5100000</K_alpha>
			  </FORK-VALUE>
			  <FORK-VALUE Name="Value-2">
			  	<K_alpha>4900000</K_alpha>
			  </FORK-VALUE>
			</FORKED-NODE>
			<FORKED-NODE Name="KP" Alias="Vidal-KP">
			  <FORK-VALUE Name="Value-0">
			  	<KP>1</KP>
			  </FORK-VALUE>
			  <FORK-VALUE Name="Value-1">
			  	<KP>0.9</KP>
			  </FORK-VALUE>
			  <FORK-VALUE Name="Value-2">
			  	<KP>1.1</KP>
			  </FORK-VALUE>
			</FORKED-NODE>
			<FORKED-NODE Name="KI" Alias="Vidal-KI">
			  <FORK-VALUE Name="Value-0">
			  	<KI>0.01</KI>
			  </FORK-VALUE>
			  <FORK-VALUE Name="Value-1">
			  	<KI>0.05</KI>
			  </FORK-VALUE>
			  <FORK-VALUE Name="Value-2">
			  	<KI>0.1</KI>
			  </FORK-VALUE>
			</FORKED-NODE>
		</Vidal>
		</Controller>
			  </FORK-VALUE>
			  <FORK-VALUE Name="Value-1">
			  	<Controller>
		<Boukhezzar>
			<FORKED-NODE Name="C_0" Alias="C0">
			  <FORK-VALUE Name="Value-0">
			  	<C_0>1.0</C_0>
			  </FORK-VALUE>
			  <FORK-VALUE Name="Value-1">
			  	<C_0>1.1</C_0>
			  </FORK-VALUE>
			  <FORK-VALUE Name="Value-2">
			  	<C_0>0.9</C_0>
			  </FORK-VALUE>
			</FORKED-NODE>
			<FORKED-NODE Name="KP" Alias="KP-2">
			  <FORK-VALUE Name="Value-0">
			  	<KP>1.0</KP>
			  </FORK-VALUE>
			  <FORK-VALUE Name="Value-1">
			  	<KP>1.1</KP>
			  </FORK-VALUE>
			  <FORK-VALUE Name="Value-2">
			  	<KP>0.9</KP>
			  </FORK-VALUE>
			</FORKED-NODE>
			<FORKED-NODE Name="KI" Alias="KI">
			  <FORK-VALUE Name="Value-0">
			  	<KI>0.1</KI>
			  </FORK-VALUE>
			  <FORK-VALUE Name="Value-1">
			  	<KI>0.05</KI>
			  </FORK-VALUE>
			  <FORK-VALUE Name="Value-2">
			  	<KI>0.01</KI>
			  </FORK-VALUE>
			</FORKED-NODE>
		</Boukhezzar>
		</Controller>
			  </FORK-VALUE>
			  <FORK-VALUE Name="Value-2">
			  	<Controller>
		<Jonkman>
			<CornerFreq>1.570796</CornerFreq>
			<VS_SlPc>10.0</VS_SlPc>
			<VS_Rgn2K>2.332287</VS_Rgn2K>
			<VS_Rgn2Sp>91.21091</VS_Rgn2Sp>
			<VS_CtInSp>70.16224</VS_CtInSp>
			<VS_Rgn3MP>0.01745329</VS_Rgn3MP>
			<PC_KK>0.1099965</PC_KK>
			<FORKED-NODE Name="PC_KP" Alias="PC_KP">
			  <FORK-VALUE Name="Value-0">
			  	<PC_KP>0.01882681</PC_KP>
			  </FORK-VALUE>
			  <FORK-VALUE Name="Value-1">
			  	<PC_KP>0.1882681</PC_KP>
			  </FORK-VALUE>
			  <FORK-VALUE Name="Value-2">
			  	<PC_KP>0.1</PC_KP>
			  </FORK-VALUE>
			</FORKED-NODE>
			<PC_KI>0.008068634</PC_KI>
			<PC_RefSpd>122.9096</PC_RefSpd>
		</Jonkman>
		</Controller>
			  </FORK-VALUE>
			</FORKED-NODE>
		</Controller>
		</Type>
		</Simion>
	</SimGod>
</RLSimion>
</RLSimion>
  </EXPERIMENT>
</BADGER-PROJECT>
