! This hub-height wind-speed file was generated by TurbSim (v1.06.00, 21-Sep-2012) on 06-Dec-2015 at 18:55:49.
!
! The requested statistics for this data were:
!    Mean Total Wind Speed =   20.000 m/s
!
!   Time  HorSpd  WndDir  VerSpd  HorShr  VerShr  LnVShr  GstSpd
!  (sec)   (m/s)   (deg)   (m/s)     (-)     (-)     (-)   (m/s)
   0.000   27.00    2.16   -2.65   0.000   0.143   0.000    0.00
   0.050   26.67    1.27   -2.28   0.000   0.143   0.000    0.00
   0.100   26.23    0.98   -2.21   0.000   0.143   0.000    0.00
   0.150   27.25    2.73   -1.84   0.000   0.143   0.000    0.00
   0.200   27.16    2.68   -1.67   0.000   0.143   0.000    0.00
   0.250   26.93    3.49   -1.49   0.000   0.143   0.000    0.00
   0.300   26.48    3.21   -1.07   0.000   0.143   0.000    0.00
   0.350   26.45    2.77   -1.28   0.000   0.143   0.000    0.00
   0.400   26.57    2.03   -0.81   0.000   0.143   0.000    0.00
   0.450   26.88    2.83   -0.79   0.000   0.143   0.000    0.00
   0.500   26.40    2.97   -1.08   0.000   0.143   0.000    0.00
   0.550   25.92    1.66   -1.28   0.000   0.143   0.000    0.00
   0.600   26.06    0.77   -1.18   0.000   0.143   0.000    0.00
   0.650   26.22   -0.30   -1.28   0.000   0.143   0.000    0.00
   0.700   26.20    0.44   -1.61   0.000   0.143   0.000    0.00
   0.750   26.26    1.05   -1.14   0.000   0.143   0.000    0.00
   0.800   26.40    1.10   -0.41   0.000   0.143   0.000    0.00
   0.850   26.14    1.15   -1.38   0.000   0.143   0.000    0.00
   0.900   26.49    1.02   -2.46   0.000   0.143   0.000    0.00
   0.950   26.66    1.30   -2.86   0.000   0.143   0.000    0.00
   1.000   25.85    0.54   -3.23   0.000   0.143   0.000    0.00
   1.050   25.28    2.13   -3.18   0.000   0.143   0.000    0.00
   1.100   25.20    1.74   -2.99   0.000   0.143   0.000    0.00
   1.150   25.05    3.37   -2.51   0.000   0.143   0.000    0.00
   1.200   24.22    3.85   -2.80   0.000   0.143   0.000    0.00
   1.250   24.44    3.55   -2.55   0.000   0.143   0.000    0.00
   1.300   24.58    4.75   -2.68   0.000   0.143   0.000    0.00
   1.350   24.37    4.43   -2.30   0.000   0.143   0.000    0.00
   1.400   24.93    4.88   -2.62   0.000   0.143   0.000    0.00
   1.450   25.38    4.48   -3.24   0.000   0.143   0.000    0.00
   1.500   25.63    4.52   -3.09   0.000   0.143   0.000    0.00
   1.550   25.80    3.94   -2.61   0.000   0.143   0.000    0.00
   1.600   25.63    3.28   -3.14   0.000   0.143   0.000    0.00
   1.650   25.93    3.99   -3.05   0.000   0.143   0.000    0.00
   1.700   25.90    4.76   -3.06   0.000   0.143   0.000    0.00
   1.750   25.66    4.57   -1.85   0.000   0.143   0.000    0.00
   1.800   25.67    3.76   -1.87   0.000   0.143   0.000    0.00
   1.850   25.40    3.63   -2.46   0.000   0.143   0.000    0.00
   1.900   25.82    2.09   -2.20   0.000   0.143   0.000    0.00
   1.950   25.54    2.45   -2.56   0.000   0.143   0.000    0.00
   2.000   25.18    4.05   -2.80   0.000   0.143   0.000    0.00
   2.050   25.06    4.35   -1.84   0.000   0.143   0.000    0.00
   2.100   24.89    2.90   -2.22   0.000   0.143   0.000    0.00
   2.150   24.28    2.35   -2.11   0.000   0.143   0.000    0.00
   2.200   23.68    3.94   -2.41   0.000   0.143   0.000    0.00
   2.250   24.49    4.49   -1.74   0.000   0.143   0.000    0.00
   2.300   25.10    3.16   -1.80   0.000   0.143   0.000    0.00
   2.350   25.20    4.38   -2.03   0.000   0.143   0.000    0.00
   2.400   25.03    4.23   -2.58   0.000   0.143   0.000    0.00
   2.450   25.29    3.06   -3.16   0.000   0.143   0.000    0.00
   2.500   25.88    3.21   -3.47   0.000   0.143   0.000    0.00
   2.550   25.39    2.98   -3.42   0.000   0.143   0.000    0.00
   2.600   24.82    2.90   -4.13   0.000   0.143   0.000    0.00
   2.650   24.39    3.05   -4.31   0.000   0.143   0.000    0.00
   2.700   24.41    4.25   -3.62   0.000   0.143   0.000    0.00
   2.750   24.75    6.45   -3.58   0.000   0.143   0.000    0.00
   2.800   25.55    6.98   -3.58   0.000   0.143   0.000    0.00
   2.850   24.96    6.05   -3.02   0.000   0.143   0.000    0.00
   2.900   25.30    5.23   -3.00   0.000   0.143   0.000    0.00
   2.950   25.05    3.86   -2.60   0.000   0.143   0.000    0.00
   3.000   24.86    4.57   -2.69   0.000   0.143   0.000    0.00
   3.050   24.88    4.37   -2.70   0.000   0.143   0.000    0.00
   3.100   24.25    3.35   -2.26   0.000   0.143   0.000    0.00
   3.150   24.45    2.96   -1.77   0.000   0.143   0.000    0.00
   3.200   24.14    3.26   -1.34   0.000   0.143   0.000    0.00
   3.250   24.07    3.79   -1.05   0.000   0.143   0.000    0.00
   3.300   24.42    4.29   -1.69   0.000   0.143   0.000    0.00
   3.350   23.76    3.47   -1.60   0.000   0.143   0.000    0.00
   3.400   23.64    1.92   -1.77   0.000   0.143   0.000    0.00
   3.450   24.26    1.80   -1.60   0.000   0.143   0.000    0.00
   3.500   23.88    1.47   -1.66   0.000   0.143   0.000    0.00
   3.550   23.51   -1.90   -1.73   0.000   0.143   0.000    0.00
   3.600   23.48   -1.73   -1.84   0.000   0.143   0.000    0.00
   3.650   24.31   -0.19   -1.75   0.000   0.143   0.000    0.00
   3.700   23.57    1.61   -1.78   0.000   0.143   0.000    0.00
   3.750   23.85    2.78   -1.95   0.000   0.143   0.000    0.00
   3.800   24.27    4.42   -2.25   0.000   0.143   0.000    0.00
   3.850   23.71    5.27   -2.19   0.000   0.143   0.000    0.00
   3.900   23.62    3.92   -2.18   0.000   0.143   0.000    0.00
   3.950   23.37    4.71   -2.50   0.000   0.143   0.000    0.00
   4.000   22.26    5.05   -2.48   0.000   0.143   0.000    0.00
   4.050   22.33    2.97   -2.99   0.000   0.143   0.000    0.00
   4.100   22.58    1.50   -3.44   0.000   0.143   0.000    0.00
   4.150   23.35    2.56   -3.70   0.000   0.143   0.000    0.00
   4.200   23.38    2.18   -3.93   0.000   0.143   0.000    0.00
   4.250   22.97    3.45   -4.10   0.000   0.143   0.000    0.00
   4.300   23.04    2.51   -3.49   0.000   0.143   0.000    0.00
   4.350   22.74    3.61   -3.03   0.000   0.143   0.000    0.00
   4.400   23.00    4.45   -2.57   0.000   0.143   0.000    0.00
   4.450   23.59    6.41   -2.35   0.000   0.143   0.000    0.00
   4.500   23.72    6.51   -2.24   0.000   0.143   0.000    0.00
   4.550   23.20    5.38   -1.97   0.000   0.143   0.000    0.00
   4.600   22.75    7.66   -1.98   0.000   0.143   0.000    0.00
   4.650   22.31    8.09   -1.42   0.000   0.143   0.000    0.00
   4.700   22.72    9.04   -1.33   0.000   0.143   0.000    0.00
   4.750   22.31    6.92   -0.98   0.000   0.143   0.000    0.00
   4.800   22.54    6.87   -1.31   0.000   0.143   0.000    0.00
   4.850   22.63    6.41   -0.99   0.000   0.143   0.000    0.00
   4.900   21.67    3.88   -0.45   0.000   0.143   0.000    0.00
   4.950   21.40    5.45   -0.62   0.000   0.143   0.000    0.00
   5.000   21.55    7.16   -0.46   0.000   0.143   0.000    0.00
   5.050   21.33    7.09   -1.19   0.000   0.143   0.000    0.00
   5.100   21.34    5.89   -1.11   0.000   0.143   0.000    0.00
   5.150   20.85    5.03   -1.40   0.000   0.143   0.000    0.00
   5.200   21.10    6.65   -1.45   0.000   0.143   0.000    0.00
   5.250   20.91    5.83   -1.47   0.000   0.143   0.000    0.00
   5.300   21.57    4.85   -1.68   0.000   0.143   0.000    0.00
   5.350   21.90    4.67   -1.49   0.000   0.143   0.000    0.00
   5.400   22.21    3.55   -1.63   0.000   0.143   0.000    0.00
   5.450   22.37    3.61   -2.03   0.000   0.143   0.000    0.00
   5.500   22.39    1.40   -2.05   0.000   0.143   0.000    0.00
   5.550   22.66    1.50   -2.65   0.000   0.143   0.000    0.00
   5.600   23.46    0.85   -2.98   0.000   0.143   0.000    0.00
   5.650   23.27    0.34   -3.34   0.000   0.143   0.000    0.00
   5.700   23.64    2.16   -2.75   0.000   0.143   0.000    0.00
   5.750   23.57    3.07   -2.14   0.000   0.143   0.000    0.00
   5.800   23.06    4.08   -2.78   0.000   0.143   0.000    0.00
   5.850   23.00    4.13   -2.72   0.000   0.143   0.000    0.00
   5.900   23.43    3.42   -3.05   0.000   0.143   0.000    0.00
   5.950   23.53    2.82   -2.11   0.000   0.143   0.000    0.00
   6.000   24.05    3.58   -2.13   0.000   0.143   0.000    0.00
   6.050   24.11    3.48   -2.17   0.000   0.143   0.000    0.00
   6.100   23.77    3.71   -2.06   0.000   0.143   0.000    0.00
   6.150   23.89    4.98   -2.22   0.000   0.143   0.000    0.00
   6.200   23.80    4.77   -2.43   0.000   0.143   0.000    0.00
   6.250   23.98    1.37   -2.33   0.000   0.143   0.000    0.00
   6.300   24.04    1.15   -2.38   0.000   0.143   0.000    0.00
   6.350   24.08   -0.36   -2.36   0.000   0.143   0.000    0.00
   6.400   23.96    1.01   -2.19   0.000   0.143   0.000    0.00
   6.450   24.12    1.18   -1.91   0.000   0.143   0.000    0.00
   6.500   24.17    0.46   -2.03   0.000   0.143   0.000    0.00
   6.550   24.00    1.06   -2.32   0.000   0.143   0.000    0.00
   6.600   24.07    1.77   -2.46   0.000   0.143   0.000    0.00
   6.650   24.35   -0.46   -2.19   0.000   0.143   0.000    0.00
   6.700   24.79   -1.56   -1.95   0.000   0.143   0.000    0.00
   6.750   25.33   -2.25   -1.28   0.000   0.143   0.000    0.00
   6.800   24.74   -2.87   -0.90   0.000   0.143   0.000    0.00
   6.850   24.95   -3.71   -0.71   0.000   0.143   0.000    0.00
   6.900   24.14   -2.43   -1.13   0.000   0.143   0.000    0.00
   6.950   23.91   -3.13   -0.89   0.000   0.143   0.000    0.00
   7.000   23.94   -1.33   -0.77   0.000   0.143   0.000    0.00
   7.050   24.06    0.55   -0.25   0.000   0.143   0.000    0.00
   7.100   24.14   -1.25   -1.54   0.000   0.143   0.000    0.00
   7.150   23.75   -1.50   -1.30   0.000   0.143   0.000    0.00
   7.200   23.65   -0.97   -1.09   0.000   0.143   0.000    0.00
   7.250   23.77    1.10   -1.68   0.000   0.143   0.000    0.00
   7.300   23.71    2.79   -1.75   0.000   0.143   0.000    0.00
   7.350   23.17    1.94   -2.32   0.000   0.143   0.000    0.00
   7.400   23.87    3.70   -2.38   0.000   0.143   0.000    0.00
   7.450   24.18    2.80   -2.70   0.000   0.143   0.000    0.00
   7.500   24.36    0.78   -1.21   0.000   0.143   0.000    0.00
   7.550   25.04    0.97   -1.18   0.000   0.143   0.000    0.00
   7.600   24.94    1.90   -1.26   0.000   0.143   0.000    0.00
   7.650   24.84    1.10   -1.44   0.000   0.143   0.000    0.00
   7.700   24.44    2.31   -0.65   0.000   0.143   0.000    0.00
   7.750   24.73    2.63   -0.76   0.000   0.143   0.000    0.00
   7.800   24.41    1.42   -1.08   0.000   0.143   0.000    0.00
   7.850   24.43    1.30   -0.86   0.000   0.143   0.000    0.00
   7.900   24.50    0.76   -1.48   0.000   0.143   0.000    0.00
   7.950   23.79    1.72   -1.22   0.000   0.143   0.000    0.00
   8.000   23.68    3.30   -1.88   0.000   0.143   0.000    0.00
   8.050   24.02    4.18   -0.93   0.000   0.143   0.000    0.00
   8.100   24.12    3.40   -0.41   0.000   0.143   0.000    0.00
   8.150   23.74    2.69   -1.37   0.000   0.143   0.000    0.00
   8.200   23.24    3.82   -1.54   0.000   0.143   0.000    0.00
   8.250   23.27    5.11   -1.76   0.000   0.143   0.000    0.00
   8.300   23.39    5.59   -2.54   0.000   0.143   0.000    0.00
   8.350   23.36    4.92   -2.65   0.000   0.143   0.000    0.00
   8.400   23.33    3.64   -2.88   0.000   0.143   0.000    0.00
   8.450   23.32    3.77   -2.20   0.000   0.143   0.000    0.00
   8.500   24.14    5.24   -1.58   0.000   0.143   0.000    0.00
   8.550   24.43    5.28   -2.12   0.000   0.143   0.000    0.00
   8.600   24.10    4.57   -2.16   0.000   0.143   0.000    0.00
   8.650   24.23    4.79   -2.42   0.000   0.143   0.000    0.00
   8.700   23.84    4.38   -2.25   0.000   0.143   0.000    0.00
   8.750   24.51    4.70   -1.73   0.000   0.143   0.000    0.00
   8.800   23.98    5.07   -1.73   0.000   0.143   0.000    0.00
   8.850   23.47    5.45   -1.45   0.000   0.143   0.000    0.00
   8.900   23.20    3.32   -1.21   0.000   0.143   0.000    0.00
   8.950   22.91    2.81   -1.39   0.000   0.143   0.000    0.00
   9.000   23.03    0.95   -1.78   0.000   0.143   0.000    0.00
   9.050   23.69    0.50   -2.58   0.000   0.143   0.000    0.00
   9.100   23.84    1.77   -2.24   0.000   0.143   0.000    0.00
   9.150   23.75    1.64   -1.96   0.000   0.143   0.000    0.00
   9.200   23.95    0.58   -1.23   0.000   0.143   0.000    0.00
   9.250   24.24    1.79   -1.27   0.000   0.143   0.000    0.00
   9.300   24.11    1.59   -1.75   0.000   0.143   0.000    0.00
   9.350   23.76    1.28   -1.93   0.000   0.143   0.000    0.00
   9.400   23.79    2.32   -0.74   0.000   0.143   0.000    0.00
   9.450   23.89    2.65   -0.68   0.000   0.143   0.000    0.00
   9.500   24.19    4.20   -0.93   0.000   0.143   0.000    0.00
   9.550   23.46    3.32   -0.09   0.000   0.143   0.000    0.00
   9.600   23.65    1.20   -0.79   0.000   0.143   0.000    0.00
   9.650   23.59    3.20   -1.75   0.000   0.143   0.000    0.00
   9.700   23.60    3.26   -1.45   0.000   0.143   0.000    0.00
   9.750   23.58    2.15   -1.93   0.000   0.143   0.000    0.00
   9.800   23.15    2.01   -1.60   0.000   0.143   0.000    0.00
   9.850   23.44    1.89   -1.62   0.000   0.143   0.000    0.00
   9.900   23.50    1.68   -2.76   0.000   0.143   0.000    0.00
   9.950   23.38    0.41   -2.79   0.000   0.143   0.000    0.00
  10.000   23.57   -0.30   -2.77   0.000   0.143   0.000    0.00
  10.050   23.82    0.42   -2.65   0.000   0.143   0.000    0.00
  10.100   24.20    1.18   -3.29   0.000   0.143   0.000    0.00
  10.150   24.37    1.78   -3.04   0.000   0.143   0.000    0.00
  10.200   23.66    2.01   -2.02   0.000   0.143   0.000    0.00
  10.250   23.76    2.11   -2.78   0.000   0.143   0.000    0.00
  10.300   23.96    2.16   -3.23   0.000   0.143   0.000    0.00
  10.350   23.39    4.15   -2.81   0.000   0.143   0.000    0.00
  10.400   22.60    5.01   -3.11   0.000   0.143   0.000    0.00
  10.450   22.67    5.47   -2.79   0.000   0.143   0.000    0.00
  10.500   23.09    4.90   -2.92   0.000   0.143   0.000    0.00
  10.550   23.61    4.51   -2.40   0.000   0.143   0.000    0.00
  10.600   23.73    3.84   -2.38   0.000   0.143   0.000    0.00
  10.650   24.08    5.34   -2.51   0.000   0.143   0.000    0.00
  10.700   24.32    6.27   -2.04   0.000   0.143   0.000    0.00
  10.750   24.20    6.40   -1.77   0.000   0.143   0.000    0.00
  10.800   23.66    5.33   -1.41   0.000   0.143   0.000    0.00
  10.850   23.33    5.10   -1.30   0.000   0.143   0.000    0.00
  10.900   23.35    4.65   -1.23   0.000   0.143   0.000    0.00
  10.950   23.24    3.81   -0.90   0.000   0.143   0.000    0.00
  11.000   22.99    3.75   -1.19   0.000   0.143   0.000    0.00
  11.050   23.00    2.68   -0.68   0.000   0.143   0.000    0.00
  11.100   22.38    3.52   -0.79   0.000   0.143   0.000    0.00
  11.150   22.88    2.68   -1.21   0.000   0.143   0.000    0.00
  11.200   22.93    1.53   -1.44   0.000   0.143   0.000    0.00
  11.250   22.63    0.93   -1.18   0.000   0.143   0.000    0.00
  11.300   22.12   -0.10   -0.87   0.000   0.143   0.000    0.00
  11.350   22.51   -0.43   -1.10   0.000   0.143   0.000    0.00
  11.400   22.00   -2.84   -1.16   0.000   0.143   0.000    0.00
  11.450   22.15   -4.69   -1.39   0.000   0.143   0.000    0.00
  11.500   21.85   -3.69   -1.22   0.000   0.143   0.000    0.00
  11.550   22.55   -1.80   -1.84   0.000   0.143   0.000    0.00
  11.600   23.22   -2.91   -1.31   0.000   0.143   0.000    0.00
  11.650   23.14   -1.17   -1.25   0.000   0.143   0.000    0.00
  11.700   22.43   -1.29   -0.92   0.000   0.143   0.000    0.00
  11.750   22.21    1.15   -0.30   0.000   0.143   0.000    0.00
  11.800   21.81    2.79   -0.48   0.000   0.143   0.000    0.00
  11.850   21.72    0.71    0.17   0.000   0.143   0.000    0.00
  11.900   22.77   -1.48    0.04   0.000   0.143   0.000    0.00
  11.950   23.14   -2.50    0.00   0.000   0.143   0.000    0.00
  12.000   23.02   -0.86   -0.52   0.000   0.143   0.000    0.00
  12.050   22.33   -0.06   -0.19   0.000   0.143   0.000    0.00
  12.100   22.45   -0.45   -0.55   0.000   0.143   0.000    0.00
  12.150   22.91   -0.71   -1.32   0.000   0.143   0.000    0.00
  12.200   23.18    0.17   -1.18   0.000   0.143   0.000    0.00
  12.250   23.09   -0.83   -2.05   0.000   0.143   0.000    0.00
  12.300   23.26   -1.63   -2.48   0.000   0.143   0.000    0.00
  12.350   23.14   -1.93   -2.57   0.000   0.143   0.000    0.00
  12.400   22.79   -1.41   -2.19   0.000   0.143   0.000    0.00
  12.450   22.67   -1.68   -1.97   0.000   0.143   0.000    0.00
  12.500   22.76   -1.04   -1.61   0.000   0.143   0.000    0.00
  12.550   22.91    0.42   -1.92   0.000   0.143   0.000    0.00
  12.600   22.49    1.43   -1.34   0.000   0.143   0.000    0.00
  12.650   22.29   -1.08   -2.47   0.000   0.143   0.000    0.00
  12.700   22.02   -0.83   -2.88   0.000   0.143   0.000    0.00
  12.750   21.54    1.16   -3.17   0.000   0.143   0.000    0.00
  12.800   21.59    0.05   -2.79   0.000   0.143   0.000    0.00
  12.850   21.93    0.34   -3.16   0.000   0.143   0.000    0.00
  12.900   22.10    0.33   -3.27   0.000   0.143   0.000    0.00
  12.950   22.55   -1.50   -3.15   0.000   0.143   0.000    0.00
  13.000   23.15   -2.69   -2.90   0.000   0.143   0.000    0.00
  13.050   23.81   -0.79   -2.89   0.000   0.143   0.000    0.00
  13.100   23.99   -0.77   -2.66   0.000   0.143   0.000    0.00
  13.150   23.69   -2.66   -2.76   0.000   0.143   0.000    0.00
  13.200   23.14   -3.74   -2.42   0.000   0.143   0.000    0.00
  13.250   23.17   -4.70   -2.19   0.000   0.143   0.000    0.00
  13.300   23.40   -3.09   -1.75   0.000   0.143   0.000    0.00
  13.350   22.90   -4.90   -1.25   0.000   0.143   0.000    0.00
  13.400   22.79   -3.63   -0.99   0.000   0.143   0.000    0.00
  13.450   23.73   -1.61   -1.37   0.000   0.143   0.000    0.00
  13.500   23.52   -0.49   -1.81   0.000   0.143   0.000    0.00
  13.550   22.89   -1.44   -1.28   0.000   0.143   0.000    0.00
  13.600   22.59   -0.49   -0.79   0.000   0.143   0.000    0.00
  13.650   22.96   -0.49   -0.89   0.000   0.143   0.000    0.00
  13.700   23.31    1.65   -0.18   0.000   0.143   0.000    0.00
  13.750   23.08    1.32   -0.27   0.000   0.143   0.000    0.00
  13.800   23.17    2.38    0.17   0.000   0.143   0.000    0.00
  13.850   23.07    3.55   -0.11   0.000   0.143   0.000    0.00
  13.900   23.22    3.06   -0.60   0.000   0.143   0.000    0.00
  13.950   23.17    3.36   -1.01   0.000   0.143   0.000    0.00
  14.000   22.93    3.11    0.03   0.000   0.143   0.000    0.00
  14.050   22.97    2.87    0.68   0.000   0.143   0.000    0.00
  14.100   23.33    2.85   -0.22   0.000   0.143   0.000    0.00
  14.150   22.82    3.07   -0.18   0.000   0.143   0.000    0.00
  14.200   23.40    3.76   -0.34   0.000   0.143   0.000    0.00
  14.250   22.96    5.15    0.26   0.000   0.143   0.000    0.00
  14.300   23.58    4.95   -0.33   0.000   0.143   0.000    0.00
  14.350   23.39    4.30   -0.50   0.000   0.143   0.000    0.00
  14.400   22.77    4.52   -0.25   0.000   0.143   0.000    0.00
  14.450   21.92    3.45   -0.38   0.000   0.143   0.000    0.00
  14.500   22.33    1.15   -0.10   0.000   0.143   0.000    0.00
  14.550   22.53   -0.73   -0.06   0.000   0.143   0.000    0.00
  14.600   23.43   -1.26   -0.13   0.000   0.143   0.000    0.00
  14.650   22.87    1.56   -0.37   0.000   0.143   0.000    0.00
  14.700   22.52    2.31   -0.68   0.000   0.143   0.000    0.00
  14.750   22.64    2.93   -0.37   0.000   0.143   0.000    0.00
  14.800   22.64    3.58    0.37   0.000   0.143   0.000    0.00
  14.850   21.93    2.99    0.93   0.000   0.143   0.000    0.00
  14.900   21.84    3.04    1.04   0.000   0.143   0.000    0.00
  14.950   21.53    1.91    0.75   0.000   0.143   0.000    0.00
  15.000   21.58    1.59    0.64   0.000   0.143   0.000    0.00
  15.050   21.03    3.51    0.31   0.000   0.143   0.000    0.00
  15.100   21.33    2.67   -0.39   0.000   0.143   0.000    0.00
  15.150   21.26    3.87   -0.24   0.000   0.143   0.000    0.00
  15.200   21.43    2.84   -0.10   0.000   0.143   0.000    0.00
  15.250   21.47    2.84   -0.29   0.000   0.143   0.000    0.00
  15.300   21.24    3.52    0.32   0.000   0.143   0.000    0.00
  15.350   20.85    3.74    0.88   0.000   0.143   0.000    0.00
  15.400   20.75    3.61    1.30   0.000   0.143   0.000    0.00
  15.450   20.01    5.01    1.61   0.000   0.143   0.000    0.00
  15.500   19.59    5.15    2.14   0.000   0.143   0.000    0.00
  15.550   19.59    3.91    3.01   0.000   0.143   0.000    0.00
  15.600   19.96    4.88    3.00   0.000   0.143   0.000    0.00
  15.650   20.39    5.84    3.00   0.000   0.143   0.000    0.00
  15.700   20.33    5.05    3.02   0.000   0.143   0.000    0.00
  15.750   21.16    3.91    3.05   0.000   0.143   0.000    0.00
  15.800   21.00    3.91    2.89   0.000   0.143   0.000    0.00
  15.850   21.00    3.68    3.13   0.000   0.143   0.000    0.00
  15.900   20.90    3.31    3.24   0.000   0.143   0.000    0.00
  15.950   20.62    2.64    3.12   0.000   0.143   0.000    0.00
  16.000   20.23    2.35    3.54   0.000   0.143   0.000    0.00
  16.050   20.19   -0.47    3.62   0.000   0.143   0.000    0.00
  16.100   20.40    2.67    3.63   0.000   0.143   0.000    0.00
  16.150   20.52    1.90    2.42   0.000   0.143   0.000    0.00
  16.200   20.71    1.85    2.93   0.000   0.143   0.000    0.00
  16.250   20.90    2.27    3.21   0.000   0.143   0.000    0.00
  16.300   20.83    1.02    2.75   0.000   0.143   0.000    0.00
  16.350   20.39    1.94    3.19   0.000   0.143   0.000    0.00
  16.400   20.25    4.81    3.20   0.000   0.143   0.000    0.00
  16.450   20.83    1.85    2.58   0.000   0.143   0.000    0.00
  16.500   21.09    1.87    2.46   0.000   0.143   0.000    0.00
  16.550   20.88    3.51    3.13   0.000   0.143   0.000    0.00
  16.600   21.14    3.89    2.75   0.000   0.143   0.000    0.00
  16.650   20.52    4.59    2.69   0.000   0.143   0.000    0.00
  16.700   20.92    5.41    2.64   0.000   0.143   0.000    0.00
  16.750   21.28    5.14    1.83   0.000   0.143   0.000    0.00
  16.800   21.58    4.71    1.84   0.000   0.143   0.000    0.00
  16.850   21.33    4.71    1.11   0.000   0.143   0.000    0.00
  16.900   21.30    3.57    0.69   0.000   0.143   0.000    0.00
  16.950   21.63    3.75    0.06   0.000   0.143   0.000    0.00
  17.000   21.51    4.23   -1.22   0.000   0.143   0.000    0.00
  17.050   21.75    6.45   -1.74   0.000   0.143   0.000    0.00
  17.100   22.03    7.81   -0.81   0.000   0.143   0.000    0.00
  17.150   21.84    7.65    0.59   0.000   0.143   0.000    0.00
  17.200   21.47    6.12    0.43   0.000   0.143   0.000    0.00
  17.250   21.40    7.45    0.11   0.000   0.143   0.000    0.00
  17.300   21.32    7.42    0.17   0.000   0.143   0.000    0.00
  17.350   21.70    8.40   -0.33   0.000   0.143   0.000    0.00
  17.400   21.60    8.83   -0.67   0.000   0.143   0.000    0.00
  17.450   21.53    9.92   -0.67   0.000   0.143   0.000    0.00
  17.500   21.96   10.12   -0.40   0.000   0.143   0.000    0.00
  17.550   21.70   10.06   -0.12   0.000   0.143   0.000    0.00
  17.600   21.64    9.32   -0.75   0.000   0.143   0.000    0.00
  17.650   21.19   10.02   -0.96   0.000   0.143   0.000    0.00
  17.700   21.33    8.50   -0.82   0.000   0.143   0.000    0.00
  17.750   21.02    8.22   -0.79   0.000   0.143   0.000    0.00
  17.800   20.38    8.85   -1.07   0.000   0.143   0.000    0.00
  17.850   20.89    8.66   -0.52   0.000   0.143   0.000    0.00
  17.900   20.83    8.17   -0.61   0.000   0.143   0.000    0.00
  17.950   20.04    8.95    0.13   0.000   0.143   0.000    0.00
  18.000   19.92    5.41   -0.05   0.000   0.143   0.000    0.00
  18.050   19.72    3.35   -0.33   0.000   0.143   0.000    0.00
  18.100   19.90    2.72   -0.54   0.000   0.143   0.000    0.00
  18.150   20.01    2.90    0.45   0.000   0.143   0.000    0.00
  18.200   20.26    2.30    0.22   0.000   0.143   0.000    0.00
  18.250   20.09    1.91    0.03   0.000   0.143   0.000    0.00
  18.300   20.27    2.68   -0.21   0.000   0.143   0.000    0.00
  18.350   20.17    3.64    0.11   0.000   0.143   0.000    0.00
  18.400   20.22    4.72   -0.23   0.000   0.143   0.000    0.00
  18.450   19.99    2.44   -0.62   0.000   0.143   0.000    0.00
  18.500   20.18    2.04   -0.24   0.000   0.143   0.000    0.00
  18.550   20.52    1.40   -0.75   0.000   0.143   0.000    0.00
  18.600   21.15    0.37   -1.18   0.000   0.143   0.000    0.00
  18.650   21.54    0.86   -1.10   0.000   0.143   0.000    0.00
  18.700   21.16    0.64   -1.23   0.000   0.143   0.000    0.00
  18.750   21.05   -2.95    0.12   0.000   0.143   0.000    0.00
  18.800   20.58   -4.49   -0.57   0.000   0.143   0.000    0.00
  18.850   20.21   -1.05   -0.61   0.000   0.143   0.000    0.00
  18.900   19.96   -2.53   -0.05   0.000   0.143   0.000    0.00
  18.950   20.54   -0.73    0.36   0.000   0.143   0.000    0.00
  19.000   21.06   -0.41    0.15   0.000   0.143   0.000    0.00
  19.050   20.30    0.07    0.18   0.000   0.143   0.000    0.00
  19.100   20.07    0.51    0.30   0.000   0.143   0.000    0.00
  19.150   20.71    1.14    0.16   0.000   0.143   0.000    0.00
  19.200   21.15    0.88    0.26   0.000   0.143   0.000    0.00
  19.250   22.11    1.53    0.38   0.000   0.143   0.000    0.00
  19.300   21.37    1.04    0.00   0.000   0.143   0.000    0.00
  19.350   20.92    0.46    0.40   0.000   0.143   0.000    0.00
  19.400   21.09   -0.28    0.87   0.000   0.143   0.000    0.00
  19.450   21.12   -0.79    0.28   0.000   0.143   0.000    0.00
  19.500   20.96    1.19    0.07   0.000   0.143   0.000    0.00
  19.550   21.06    1.03   -0.48   0.000   0.143   0.000    0.00
  19.600   20.67    2.54    0.11   0.000   0.143   0.000    0.00
  19.650   20.93    2.33   -0.08   0.000   0.143   0.000    0.00
  19.700   20.99    1.93   -0.62   0.000   0.143   0.000    0.00
  19.750   21.30    1.57   -0.60   0.000   0.143   0.000    0.00
  19.800   21.10    2.61   -0.22   0.000   0.143   0.000    0.00
  19.850   20.40    4.03    0.01   0.000   0.143   0.000    0.00
  19.900   20.42    4.66   -0.21   0.000   0.143   0.000    0.00
  19.950   21.08    4.96   -0.52   0.000   0.143   0.000    0.00
  20.000   20.43    3.17   -0.77   0.000   0.143   0.000    0.00
  20.050   20.70    2.74   -1.01   0.000   0.143   0.000    0.00
  20.100   20.95    1.76   -0.77   0.000   0.143   0.000    0.00
  20.150   20.99    2.37   -0.93   0.000   0.143   0.000    0.00
  20.200   20.77    2.12   -0.85   0.000   0.143   0.000    0.00
  20.250   21.10    2.86   -0.79   0.000   0.143   0.000    0.00
  20.300   20.92    1.43   -0.34   0.000   0.143   0.000    0.00
  20.350   21.48    1.56   -0.14   0.000   0.143   0.000    0.00
  20.400   21.64    2.23   -0.22   0.000   0.143   0.000    0.00
  20.450   21.47    2.20   -0.53   0.000   0.143   0.000    0.00
  20.500   21.51    1.32   -0.29   0.000   0.143   0.000    0.00
  20.550   21.50    1.78   -0.60   0.000   0.143   0.000    0.00
  20.600   21.56    1.00   -0.04   0.000   0.143   0.000    0.00
  20.650   21.47    1.52    0.11   0.000   0.143   0.000    0.00
  20.700   21.08    2.55    0.05   0.000   0.143   0.000    0.00
  20.750   21.52    3.39    0.60   0.000   0.143   0.000    0.00
  20.800   22.16    2.63    1.16   0.000   0.143   0.000    0.00
  20.850   23.25    1.79    0.86   0.000   0.143   0.000    0.00
  20.900   22.98    2.31    0.96   0.000   0.143   0.000    0.00
  20.950   21.81    3.50    1.21   0.000   0.143   0.000    0.00
  21.000   21.67    4.96    1.24   0.000   0.143   0.000    0.00
  21.050   21.76    3.15    1.03   0.000   0.143   0.000    0.00
  21.100   21.54    2.20    0.86   0.000   0.143   0.000    0.00
  21.150   21.89    2.93    0.89   0.000   0.143   0.000    0.00
  21.200   21.98    2.93    1.22   0.000   0.143   0.000    0.00
  21.250   22.19    4.52    1.41   0.000   0.143   0.000    0.00
  21.300   21.83    5.71    1.56   0.000   0.143   0.000    0.00
  21.350   21.94    3.70    1.60   0.000   0.143   0.000    0.00
  21.400   21.68    4.51    1.69   0.000   0.143   0.000    0.00
  21.450   21.69    5.15    1.10   0.000   0.143   0.000    0.00
  21.500   21.73    5.59    0.79   0.000   0.143   0.000    0.00
  21.550   22.17    5.11    1.97   0.000   0.143   0.000    0.00
  21.600   22.67    4.76    2.03   0.000   0.143   0.000    0.00
  21.650   22.11    5.26    1.64   0.000   0.143   0.000    0.00
  21.700   22.20    5.09    1.50   0.000   0.143   0.000    0.00
  21.750   21.96    4.65    2.09   0.000   0.143   0.000    0.00
  21.800   21.85    5.42    1.84   0.000   0.143   0.000    0.00
  21.850   22.15    5.43    2.13   0.000   0.143   0.000    0.00
  21.900   21.89    6.82    2.05   0.000   0.143   0.000    0.00
  21.950   21.55    5.63    2.37   0.000   0.143   0.000    0.00
  22.000   21.96    5.45    1.65   0.000   0.143   0.000    0.00
  22.050   22.14    5.56    1.79   0.000   0.143   0.000    0.00
  22.100   21.63    6.40    1.81   0.000   0.143   0.000    0.00
  22.150   21.35    7.39    0.62   0.000   0.143   0.000    0.00
  22.200   21.35    8.33    0.32   0.000   0.143   0.000    0.00
  22.250   21.09    9.07    0.71   0.000   0.143   0.000    0.00
  22.300   20.39    8.27    0.20   0.000   0.143   0.000    0.00
  22.350   19.79    9.20   -0.22   0.000   0.143   0.000    0.00
  22.400   19.86    6.96   -0.12   0.000   0.143   0.000    0.00
  22.450   19.68    6.71   -0.62   0.000   0.143   0.000    0.00
  22.500   19.60    6.04   -0.26   0.000   0.143   0.000    0.00
  22.550   19.81    5.04    0.01   0.000   0.143   0.000    0.00
  22.600   19.78    4.68   -0.10   0.000   0.143   0.000    0.00
  22.650   19.71    3.40   -0.78   0.000   0.143   0.000    0.00
  22.700   19.73    1.01   -0.08   0.000   0.143   0.000    0.00
  22.750   19.38    0.57   -0.64   0.000   0.143   0.000    0.00