! This hub-height wind-speed file was generated by TurbSim (v1.06.00, 21-Sep-2012) on 07-Dec-2015 at 15:40:10.
!
! The requested statistics for this data were:
!    Mean Total Wind Speed =    9.500 m/s
!
!   Time  HorSpd  WndDir  VerSpd  HorShr  VerShr  LnVShr  GstSpd
!  (sec)   (m/s)   (deg)   (m/s)     (-)     (-)     (-)   (m/s)
   0.000   12.77    3.34   -1.31   0.000   0.143   0.000    0.00
   0.050   12.64    2.65   -1.17   0.000   0.143   0.000    0.00
   0.100   12.48    2.44   -1.15   0.000   0.143   0.000    0.00
   0.150   12.86    3.77   -1.01   0.000   0.143   0.000    0.00
   0.200   12.83    3.74   -0.95   0.000   0.143   0.000    0.00
   0.250   12.75    4.37   -0.89   0.000   0.143   0.000    0.00
   0.300   12.58    4.16   -0.73   0.000   0.143   0.000    0.00
   0.350   12.57    3.82   -0.82   0.000   0.143   0.000    0.00
   0.400   12.61    3.24   -0.64   0.000   0.143   0.000    0.00
   0.450   12.72    3.86   -0.64   0.000   0.143   0.000    0.00
   0.500   12.55    3.98   -0.75   0.000   0.143   0.000    0.00
   0.550   12.37    2.97   -0.83   0.000   0.143   0.000    0.00
   0.600   12.42    2.27   -0.80   0.000   0.143   0.000    0.00
   0.650   12.47    1.44   -0.83   0.000   0.143   0.000    0.00
   0.700   12.47    2.01   -0.96   0.000   0.143   0.000    0.00
   0.750   12.49    2.48   -0.79   0.000   0.143   0.000    0.00
   0.800   12.54    2.52   -0.52   0.000   0.143   0.000    0.00
   0.850   12.45    2.57   -0.88   0.000   0.143   0.000    0.00
   0.900   12.57    2.46   -1.29   0.000   0.143   0.000    0.00
   0.950   12.64    2.67   -1.44   0.000   0.143   0.000    0.00
   1.000   12.34    2.11   -1.58   0.000   0.143   0.000    0.00
   1.050   12.13    3.37   -1.57   0.000   0.143   0.000    0.00
   1.100   12.10    3.07   -1.50   0.000   0.143   0.000    0.00
   1.150   12.05    4.33   -1.33   0.000   0.143   0.000    0.00
   1.200   11.74    4.72   -1.45   0.000   0.143   0.000    0.00
   1.250   11.82    4.49   -1.36   0.000   0.143   0.000    0.00
   1.300   11.88    5.41   -1.41   0.000   0.143   0.000    0.00
   1.350   11.80    5.17   -1.27   0.000   0.143   0.000    0.00
   1.400   12.01    5.51   -1.39   0.000   0.143   0.000    0.00
   1.450   12.17    5.18   -1.61   0.000   0.143   0.000    0.00
   1.500   12.26    5.21   -1.56   0.000   0.143   0.000    0.00
   1.550   12.33    4.75   -1.38   0.000   0.143   0.000    0.00
   1.600   12.26    4.25   -1.58   0.000   0.143   0.000    0.00
   1.650   12.37    4.79   -1.55   0.000   0.143   0.000    0.00
   1.700   12.36    5.40   -1.55   0.000   0.143   0.000    0.00
   1.750   12.28    5.25   -1.11   0.000   0.143   0.000    0.00
   1.800   12.28    4.62   -1.12   0.000   0.143   0.000    0.00
   1.850   12.18    4.53   -1.34   0.000   0.143   0.000    0.00
   1.900   12.33    3.32   -1.24   0.000   0.143   0.000    0.00
   1.950   12.22    3.61   -1.38   0.000   0.143   0.000    0.00
   2.000   12.09    4.85   -1.48   0.000   0.143   0.000    0.00
   2.050   12.05    5.09   -1.12   0.000   0.143   0.000    0.00
   2.100   11.98    3.98   -1.26   0.000   0.143   0.000    0.00
   2.150   11.75    3.58   -1.23   0.000   0.143   0.000    0.00
   2.200   11.54    4.82   -1.35   0.000   0.143   0.000    0.00
   2.250   11.84    5.21   -1.09   0.000   0.143   0.000    0.00
   2.300   12.06    4.17   -1.11   0.000   0.143   0.000    0.00
   2.350   12.10    5.11   -1.20   0.000   0.143   0.000    0.00
   2.400   12.04    5.00   -1.41   0.000   0.143   0.000    0.00
   2.450   12.13    4.09   -1.62   0.000   0.143   0.000    0.00
   2.500   12.35    4.18   -1.73   0.000   0.143   0.000    0.00
   2.550   12.17    4.02   -1.72   0.000   0.143   0.000    0.00
   2.600   11.96    3.98   -1.99   0.000   0.143   0.000    0.00
   2.650   11.80    4.10   -2.06   0.000   0.143   0.000    0.00
   2.700   11.81    5.03   -1.80   0.000   0.143   0.000    0.00
   2.750   11.93    6.71   -1.79   0.000   0.143   0.000    0.00
   2.800   12.23    7.11   -1.78   0.000   0.143   0.000    0.00
   2.850   12.01    6.40   -1.58   0.000   0.143   0.000    0.00
   2.900   12.14    5.76   -1.57   0.000   0.143   0.000    0.00
   2.950   12.04    4.71   -1.42   0.000   0.143   0.000    0.00
   3.000   11.97    5.25   -1.46   0.000   0.143   0.000    0.00
   3.050   11.98    5.10   -1.46   0.000   0.143   0.000    0.00
   3.100   11.74    4.33   -1.30   0.000   0.143   0.000    0.00
   3.150   11.82    4.03   -1.12   0.000   0.143   0.000    0.00
   3.200   11.70    4.26   -0.96   0.000   0.143   0.000    0.00
   3.250   11.68    4.66   -0.85   0.000   0.143   0.000    0.00
   3.300   11.81    5.03   -1.08   0.000   0.143   0.000    0.00
   3.350   11.56    4.42   -1.06   0.000   0.143   0.000    0.00
   3.400   11.51    3.25   -1.12   0.000   0.143   0.000    0.00
   3.450   11.74    3.12   -1.05   0.000   0.143   0.000    0.00
   3.500   11.60    2.89   -1.08   0.000   0.143   0.000    0.00
   3.550   11.44    0.34   -1.11   0.000   0.143   0.000    0.00
   3.600   11.43    0.47   -1.15   0.000   0.143   0.000    0.00
   3.650   11.75    1.59   -1.11   0.000   0.143   0.000    0.00
   3.700   11.48    3.01   -1.13   0.000   0.143   0.000    0.00
   3.750   11.59    3.89   -1.19   0.000   0.143   0.000    0.00
   3.800   11.75    5.13   -1.30   0.000   0.143   0.000    0.00
   3.850   11.54    5.78   -1.28   0.000   0.143   0.000    0.00
   3.900   11.51    4.76   -1.28   0.000   0.143   0.000    0.00
   3.950   11.41    5.36   -1.40   0.000   0.143   0.000    0.00
   4.000   11.00    5.64   -1.40   0.000   0.143   0.000    0.00
   4.050   11.02    4.08   -1.59   0.000   0.143   0.000    0.00
   4.100   11.11    2.96   -1.75   0.000   0.143   0.000    0.00
   4.150   11.40    3.73   -1.85   0.000   0.143   0.000    0.00
   4.200   11.41    3.44   -1.93   0.000   0.143   0.000    0.00
   4.250   11.26    4.41   -2.00   0.000   0.143   0.000    0.00
   4.300   11.28    3.70   -1.77   0.000   0.143   0.000    0.00
   4.350   11.18    4.54   -1.60   0.000   0.143   0.000    0.00
   4.400   11.27    5.17   -1.42   0.000   0.143   0.000    0.00
   4.450   11.49    6.65   -1.34   0.000   0.143   0.000    0.00
   4.500   11.54    6.72   -1.29   0.000   0.143   0.000    0.00
   4.550   11.35    5.87   -1.20   0.000   0.143   0.000    0.00
   4.600   11.18    7.59   -1.20   0.000   0.143   0.000    0.00
   4.650   11.02    7.91   -1.00   0.000   0.143   0.000    0.00
   4.700   11.17    8.63   -0.96   0.000   0.143   0.000    0.00
   4.750   11.02    7.03   -0.83   0.000   0.143   0.000    0.00
   4.800   11.10    6.99   -0.95   0.000   0.143   0.000    0.00
   4.850   11.14    6.64   -0.83   0.000   0.143   0.000    0.00
   4.900   10.78    4.75   -0.63   0.000   0.143   0.000    0.00
   4.950   10.68    5.93   -0.70   0.000   0.143   0.000    0.00
   5.000   10.73    7.20   -0.64   0.000   0.143   0.000    0.00
   5.050   10.65    7.14   -0.91   0.000   0.143   0.000    0.00
   5.100   10.66    6.25   -0.88   0.000   0.143   0.000    0.00
   5.150   10.47    5.61   -0.99   0.000   0.143   0.000    0.00
   5.200   10.56    6.80   -1.00   0.000   0.143   0.000    0.00
   5.250   10.49    6.19   -1.01   0.000   0.143   0.000    0.00
   5.300   10.74    5.45   -1.09   0.000   0.143   0.000    0.00
   5.350   10.86    5.30   -1.01   0.000   0.143   0.000    0.00
   5.400   10.97    4.45   -1.07   0.000   0.143   0.000    0.00
   5.450   11.03    4.49   -1.21   0.000   0.143   0.000    0.00
   5.500   11.03    2.82   -1.22   0.000   0.143   0.000    0.00
   5.550   11.13    2.88   -1.44   0.000   0.143   0.000    0.00
   5.600   11.43    2.34   -1.55   0.000   0.143   0.000    0.00
   5.650   11.35    1.96   -1.69   0.000   0.143   0.000    0.00
   5.700   11.50    3.32   -1.47   0.000   0.143   0.000    0.00
   5.750   11.47    4.01   -1.24   0.000   0.143   0.000    0.00
   5.800   11.28    4.79   -1.48   0.000   0.143   0.000    0.00
   5.850   11.26    4.82   -1.46   0.000   0.143   0.000    0.00
   5.900   11.42    4.27   -1.57   0.000   0.143   0.000    0.00
   5.950   11.46    3.80   -1.23   0.000   0.143   0.000    0.00
   6.000   11.65    4.37   -1.22   0.000   0.143   0.000    0.00
   6.050   11.67    4.28   -1.24   0.000   0.143   0.000    0.00
   6.100   11.55    4.46   -1.20   0.000   0.143   0.000    0.00
   6.150   11.59    5.42   -1.26   0.000   0.143   0.000    0.00
   6.200   11.56    5.26   -1.33   0.000   0.143   0.000    0.00
   6.250   11.62    2.65   -1.29   0.000   0.143   0.000    0.00
   6.300   11.64    2.47   -1.31   0.000   0.143   0.000    0.00
   6.350   11.65    1.32   -1.30   0.000   0.143   0.000    0.00
   6.400   11.61    2.36   -1.24   0.000   0.143   0.000    0.00
   6.450   11.67    2.48   -1.13   0.000   0.143   0.000    0.00
   6.500   11.68    1.92   -1.17   0.000   0.143   0.000    0.00
   6.550   11.62    2.38   -1.28   0.000   0.143   0.000    0.00
   6.600   11.65    2.92   -1.33   0.000   0.143   0.000    0.00
   6.650   11.74    1.19   -1.22   0.000   0.143   0.000    0.00
   6.700   11.90    0.32   -1.13   0.000   0.143   0.000    0.00
   6.750   12.10   -0.25   -0.87   0.000   0.143   0.000    0.00
   6.800   11.88   -0.70   -0.73   0.000   0.143   0.000    0.00
   6.850   11.95   -1.37   -0.66   0.000   0.143   0.000    0.00
   6.900   11.66   -0.32   -0.82   0.000   0.143   0.000    0.00
   6.950   11.57   -0.85   -0.73   0.000   0.143   0.000    0.00
   7.000   11.59    0.52   -0.69   0.000   0.143   0.000    0.00
   7.050   11.64    1.96   -0.49   0.000   0.143   0.000    0.00
   7.100   11.66    0.57   -0.97   0.000   0.143   0.000    0.00
   7.150   11.51    0.41   -0.88   0.000   0.143   0.000    0.00
   7.200   11.48    0.81   -0.80   0.000   0.143   0.000    0.00
   7.250   11.53    2.39   -1.02   0.000   0.143   0.000    0.00
   7.300   11.51    3.68   -1.05   0.000   0.143   0.000    0.00
   7.350   11.31    3.05   -1.26   0.000   0.143   0.000    0.00
   7.400   11.57    4.37   -1.28   0.000   0.143   0.000    0.00
   7.450   11.69    3.67   -1.39   0.000   0.143   0.000    0.00
   7.500   11.75    2.12   -0.83   0.000   0.143   0.000    0.00
   7.550   12.00    2.24   -0.82   0.000   0.143   0.000    0.00
   7.600   11.96    2.96   -0.84   0.000   0.143   0.000    0.00
   7.650   11.92    2.34   -0.91   0.000   0.143   0.000    0.00
   7.700   11.78    3.29   -0.62   0.000   0.143   0.000    0.00
   7.750   11.89    3.53   -0.66   0.000   0.143   0.000    0.00
   7.800   11.76    2.61   -0.78   0.000   0.143   0.000    0.00
   7.850   11.77    2.52   -0.70   0.000   0.143   0.000    0.00
   7.900   11.80    2.09   -0.93   0.000   0.143   0.000    0.00
   7.950   11.53    2.86   -0.83   0.000   0.143   0.000    0.00
   8.000   11.50    4.07   -1.08   0.000   0.143   0.000    0.00
   8.050   11.63    4.73   -0.72   0.000   0.143   0.000    0.00
   8.100   11.66    4.14   -0.53   0.000   0.143   0.000    0.00
   8.150   11.52    3.60   -0.89   0.000   0.143   0.000    0.00
   8.200   11.33    4.48   -0.96   0.000   0.143   0.000    0.00
   8.250   11.35    5.45   -1.04   0.000   0.143   0.000    0.00
   8.300   11.39    5.82   -1.33   0.000   0.143   0.000    0.00
   8.350   11.38    5.31   -1.37   0.000   0.143   0.000    0.00
   8.400   11.37    4.33   -1.45   0.000   0.143   0.000    0.00
   8.450   11.36    4.43   -1.20   0.000   0.143   0.000    0.00
   8.500   11.67    5.54   -0.96   0.000   0.143   0.000    0.00
   8.550   11.77    5.57   -1.16   0.000   0.143   0.000    0.00
   8.600   11.65    5.02   -1.17   0.000   0.143   0.000    0.00
   8.650   11.70    5.19   -1.27   0.000   0.143   0.000    0.00
   8.700   11.55    4.88   -1.21   0.000   0.143   0.000    0.00
   8.750   11.80    5.11   -1.01   0.000   0.143   0.000    0.00
   8.800   11.61    5.40   -1.01   0.000   0.143   0.000    0.00
   8.850   11.42    5.70   -0.91   0.000   0.143   0.000    0.00
   8.900   11.31    4.07   -0.82   0.000   0.143   0.000    0.00
   8.950   11.20    3.69   -0.89   0.000   0.143   0.000    0.00
   9.000   11.24    2.28   -1.04   0.000   0.143   0.000    0.00
   9.050   11.48    1.90   -1.32   0.000   0.143   0.000    0.00
   9.100   11.54    2.86   -1.19   0.000   0.143   0.000    0.00
   9.150   11.51    2.77   -1.09   0.000   0.143   0.000    0.00
   9.200   11.58    1.94   -0.82   0.000   0.143   0.000    0.00
   9.250   11.69    2.85   -0.83   0.000   0.143   0.000    0.00
   9.300   11.64    2.70   -1.01   0.000   0.143   0.000    0.00
   9.350   11.51    2.48   -1.07   0.000   0.143   0.000    0.00
   9.400   11.52    3.27   -0.63   0.000   0.143   0.000    0.00
   9.450   11.56    3.52   -0.61   0.000   0.143   0.000    0.00
   9.500   11.67    4.70   -0.70   0.000   0.143   0.000    0.00
   9.550   11.40    4.04   -0.39   0.000   0.143   0.000    0.00
   9.600   11.47    2.41   -0.65   0.000   0.143   0.000    0.00
   9.650   11.45    3.94   -1.00   0.000   0.143   0.000    0.00
   9.700   11.45    3.98   -0.89   0.000   0.143   0.000    0.00
   9.750   11.44    3.13   -1.07   0.000   0.143   0.000    0.00
   9.800   11.28    3.04   -0.95   0.000   0.143   0.000    0.00
   9.850   11.39    2.93   -0.96   0.000   0.143   0.000    0.00
   9.900   11.41    2.77   -1.38   0.000   0.143   0.000    0.00
   9.950   11.36    1.80   -1.39   0.000   0.143   0.000    0.00
  10.000   11.43    1.25   -1.38   0.000   0.143   0.000    0.00
  10.050   11.52    1.79   -1.33   0.000   0.143   0.000    0.00
  10.100   11.67    2.35   -1.57   0.000   0.143   0.000    0.00
  10.150   11.73    2.81   -1.47   0.000   0.143   0.000    0.00
  10.200   11.47    3.00   -1.10   0.000   0.143   0.000    0.00
  10.250   11.50    3.08   -1.38   0.000   0.143   0.000    0.00
  10.300   11.58    3.11   -1.54   0.000   0.143   0.000    0.00
  10.350   11.37    4.64   -1.39   0.000   0.143   0.000    0.00
  10.400   11.08    5.30   -1.50   0.000   0.143   0.000    0.00
  10.450   11.10    5.64   -1.38   0.000   0.143   0.000    0.00
  10.500   11.26    5.21   -1.42   0.000   0.143   0.000    0.00
  10.550   11.45    4.90   -1.23   0.000   0.143   0.000    0.00
  10.600   11.49    4.39   -1.21   0.000   0.143   0.000    0.00
  10.650   11.62    5.52   -1.25   0.000   0.143   0.000    0.00
  10.700   11.71    6.24   -1.08   0.000   0.143   0.000    0.00
  10.750   11.67    6.33   -0.97   0.000   0.143   0.000    0.00
  10.800   11.47    5.51   -0.84   0.000   0.143   0.000    0.00
  10.850   11.34    5.33   -0.80   0.000   0.143   0.000    0.00
  10.900   11.35    4.99   -0.77   0.000   0.143   0.000    0.00
  10.950   11.30    4.34   -0.65   0.000   0.143   0.000    0.00
  11.000   11.21    4.30   -0.75   0.000   0.143   0.000    0.00
  11.050   11.21    3.48   -0.56   0.000   0.143   0.000    0.00
  11.100   10.98    4.13   -0.60   0.000   0.143   0.000    0.00
  11.150   11.17    3.47   -0.75   0.000   0.143   0.000    0.00
  11.200   11.18    2.60   -0.83   0.000   0.143   0.000    0.00
  11.250   11.07    2.14   -0.73   0.000   0.143   0.000    0.00
  11.300   10.88    1.39   -0.62   0.000   0.143   0.000    0.00
  11.350   11.02    1.11   -0.70   0.000   0.143   0.000    0.00
  11.400   10.82   -0.69   -0.73   0.000   0.143   0.000    0.00
  11.450   10.86   -2.10   -0.81   0.000   0.143   0.000    0.00
  11.500   10.76   -1.32   -0.74   0.000   0.143   0.000    0.00
  11.550   11.03    0.05   -0.96   0.000   0.143   0.000    0.00
  11.600   11.27   -0.84   -0.76   0.000   0.143   0.000    0.00
  11.650   11.25    0.49   -0.73   0.000   0.143   0.000    0.00
  11.700   10.98    0.43   -0.62   0.000   0.143   0.000    0.00
  11.750   10.91    2.29   -0.38   0.000   0.143   0.000    0.00
  11.800   10.76    3.53   -0.45   0.000   0.143   0.000    0.00
  11.850   10.72    1.98   -0.21   0.000   0.143   0.000    0.00
  11.900   11.10    0.26   -0.25   0.000   0.143   0.000    0.00
  11.950   11.24   -0.54   -0.25   0.000   0.143   0.000    0.00
  12.000   11.20    0.72   -0.45   0.000   0.143   0.000    0.00
  12.050   10.95    1.36   -0.33   0.000   0.143   0.000    0.00
  12.100   10.99    1.05   -0.46   0.000   0.143   0.000    0.00
  12.150   11.16    0.83   -0.74   0.000   0.143   0.000    0.00
  12.200   11.26    1.49   -0.69   0.000   0.143   0.000    0.00
  12.250   11.22    0.73   -1.01   0.000   0.143   0.000    0.00
  12.300   11.28    0.11   -1.16   0.000   0.143   0.000    0.00
  12.350   11.23   -0.11   -1.20   0.000   0.143   0.000    0.00
  12.400   11.11    0.30   -1.06   0.000   0.143   0.000    0.00
  12.450   11.06    0.10   -0.98   0.000   0.143   0.000    0.00
  12.500   11.10    0.58   -0.84   0.000   0.143   0.000    0.00
  12.550   11.16    1.68   -0.95   0.000   0.143   0.000    0.00
  12.600   11.00    2.47   -0.73   0.000   0.143   0.000    0.00
  12.650   10.92    0.58   -1.15   0.000   0.143   0.000    0.00
  12.700   10.82    0.78   -1.30   0.000   0.143   0.000    0.00
  12.750   10.65    2.30   -1.41   0.000   0.143   0.000    0.00
  12.800   10.66    1.46   -1.27   0.000   0.143   0.000    0.00
  12.850   10.79    1.67   -1.40   0.000   0.143   0.000    0.00
  12.900   10.85    1.65   -1.44   0.000   0.143   0.000    0.00
  12.950   11.01    0.25   -1.38   0.000   0.143   0.000    0.00
  13.000   11.23   -0.69   -1.28   0.000   0.143   0.000    0.00
  13.050   11.48    0.72   -1.27   0.000   0.143   0.000    0.00
  13.100   11.55    0.73   -1.17   0.000   0.143   0.000    0.00
  13.150   11.42   -0.70   -1.21   0.000   0.143   0.000    0.00
  13.200   11.22   -1.49   -1.08   0.000   0.143   0.000    0.00
  13.250   11.22   -2.22   -0.99   0.000   0.143   0.000    0.00
  13.300   11.31   -1.01   -0.82   0.000   0.143   0.000    0.00
  13.350   11.12   -2.35   -0.63   0.000   0.143   0.000    0.00
  13.400   11.09   -1.37   -0.53   0.000   0.143   0.000    0.00
  13.450   11.44    0.12   -0.66   0.000   0.143   0.000    0.00
  13.500   11.37    0.99   -0.82   0.000   0.143   0.000    0.00
  13.550   11.13    0.30   -0.62   0.000   0.143   0.000    0.00
  13.600   11.02    1.05   -0.43   0.000   0.143   0.000    0.00
  13.650   11.16    1.04   -0.46   0.000   0.143   0.000    0.00
  13.700   11.30    2.66   -0.19   0.000   0.143   0.000    0.00
  13.750   11.21    2.42   -0.22   0.000   0.143   0.000    0.00
  13.800   11.24    3.23   -0.05   0.000   0.143   0.000    0.00
  13.850   11.21    4.14   -0.15   0.000   0.143   0.000    0.00
  13.900   11.26    3.76   -0.32   0.000   0.143   0.000    0.00
  13.950   11.25    3.99   -0.47   0.000   0.143   0.000    0.00
  14.000   11.15    3.82   -0.08   0.000   0.143   0.000    0.00
  14.050   11.17    3.63    0.17   0.000   0.143   0.000    0.00
  14.100   11.30    3.62   -0.16   0.000   0.143   0.000    0.00
  14.150   11.11    3.80   -0.14   0.000   0.143   0.000    0.00
  14.200   11.33    4.32   -0.19   0.000   0.143   0.000    0.00
  14.250   11.17    5.40    0.03   0.000   0.143   0.000    0.00
  14.300   11.40    5.24   -0.17   0.000   0.143   0.000    0.00
  14.350   11.32    4.75   -0.23   0.000   0.143   0.000    0.00
  14.400   11.09    4.93   -0.14   0.000   0.143   0.000    0.00
  14.450   10.78    4.13   -0.19   0.000   0.143   0.000    0.00
  14.500   10.92    2.39   -0.08   0.000   0.143   0.000    0.00
  14.550   10.99    0.96   -0.05   0.000   0.143   0.000    0.00
  14.600   11.32    0.50   -0.07   0.000   0.143   0.000    0.00
  14.650   11.12    2.69   -0.16   0.000   0.143   0.000    0.00
  14.700   10.99    3.28   -0.27   0.000   0.143   0.000    0.00
  14.750   11.04    3.75   -0.15   0.000   0.143   0.000    0.00
  14.800   11.04    4.24    0.13   0.000   0.143   0.000    0.00
  14.850   10.77    3.82    0.34   0.000   0.143   0.000    0.00
  14.900   10.74    3.86    0.39   0.000   0.143   0.000    0.00
  14.950   10.62    3.03    0.28   0.000   0.143   0.000    0.00
  15.000   10.64    2.79    0.25   0.000   0.143   0.000    0.00
  15.050   10.44    4.25    0.13   0.000   0.143   0.000    0.00
  15.100   10.55    3.62   -0.12   0.000   0.143   0.000    0.00
  15.150   10.52    4.52   -0.07   0.000   0.143   0.000    0.00
  15.200   10.58    3.75    0.00   0.000   0.143   0.000    0.00
  15.250   10.60    3.75   -0.07   0.000   0.143   0.000    0.00
  15.300   10.51    4.28    0.16   0.000   0.143   0.000    0.00
  15.350   10.37    4.46    0.37   0.000   0.143   0.000    0.00
  15.400   10.33    4.36    0.53   0.000   0.143   0.000    0.00
  15.450   10.06    5.42    0.64   0.000   0.143   0.000    0.00
  15.500    9.90    5.54    0.85   0.000   0.143   0.000    0.00
  15.550    9.90    4.63    1.17   0.000   0.143   0.000    0.00
  15.600   10.04    5.33    1.18   0.000   0.143   0.000    0.00
  15.650   10.20    6.04    1.19   0.000   0.143   0.000    0.00
  15.700   10.18    5.47    1.20   0.000   0.143   0.000    0.00
  15.750   10.48    4.60    1.22   0.000   0.143   0.000    0.00
  15.800   10.42    4.61    1.16   0.000   0.143   0.000    0.00
  15.850   10.42    4.44    1.25   0.000   0.143   0.000    0.00
  15.900   10.38    4.17    1.30   0.000   0.143   0.000    0.00
  15.950   10.27    3.68    1.25   0.000   0.143   0.000    0.00
  16.000   10.13    3.49    1.41   0.000   0.143   0.000    0.00
  16.050   10.10    1.41    1.44   0.000   0.143   0.000    0.00
  16.100   10.19    3.72    1.45   0.000   0.143   0.000    0.00
  16.150   10.23    3.15    1.00   0.000   0.143   0.000    0.00
  16.200   10.30    3.10    1.19   0.000   0.143   0.000    0.00
  16.250   10.38    3.42    1.30   0.000   0.143   0.000    0.00
  16.300   10.34    2.49    1.13   0.000   0.143   0.000    0.00
  16.350   10.18    3.20    1.29   0.000   0.143   0.000    0.00
  16.400   10.14    5.34    1.29   0.000   0.143   0.000    0.00
  16.450   10.34    3.12    1.06   0.000   0.143   0.000    0.00
  16.500   10.44    3.12    1.02   0.000   0.143   0.000    0.00
  16.550   10.37    4.37    1.27   0.000   0.143   0.000    0.00
  16.600   10.46    4.65    1.13   0.000   0.143   0.000    0.00
  16.650   10.23    5.19    1.10   0.000   0.143   0.000    0.00
  16.700   10.38    5.80    1.08   0.000   0.143   0.000    0.00
  16.750   10.51    5.59    0.78   0.000   0.143   0.000    0.00
  16.800   10.62    5.27    0.78   0.000   0.143   0.000    0.00
  16.850   10.53    5.27    0.51   0.000   0.143   0.000    0.00
  16.900   10.52    4.43    0.35   0.000   0.143   0.000    0.00
  16.950   10.64    4.55    0.11   0.000   0.143   0.000    0.00
  17.000   10.60    4.92   -0.36   0.000   0.143   0.000    0.00
  17.050   10.69    6.59   -0.56   0.000   0.143   0.000    0.00
  17.100   10.79    7.62   -0.21   0.000   0.143   0.000    0.00
  17.150   10.72    7.51    0.30   0.000   0.143   0.000    0.00
  17.200   10.58    6.36    0.24   0.000   0.143   0.000    0.00
  17.250   10.56    7.36    0.12   0.000   0.143   0.000    0.00
  17.300   10.53    7.34    0.13   0.000   0.143   0.000    0.00
  17.350   10.67    8.09   -0.05   0.000   0.143   0.000    0.00
  17.400   10.63    8.40   -0.18   0.000   0.143   0.000    0.00
  17.450   10.60    9.23   -0.18   0.000   0.143   0.000    0.00
  17.500   10.76    9.39   -0.08   0.000   0.143   0.000    0.00
  17.550   10.66    9.34    0.02   0.000   0.143   0.000    0.00
  17.600   10.64    8.78   -0.21   0.000   0.143   0.000    0.00
  17.650   10.47    9.29   -0.29   0.000   0.143   0.000    0.00
  17.700   10.52    8.15   -0.24   0.000   0.143   0.000    0.00
  17.750   10.41    7.94   -0.23   0.000   0.143   0.000    0.00
  17.800   10.17    8.40   -0.35   0.000   0.143   0.000    0.00
  17.850   10.36    8.26   -0.14   0.000   0.143   0.000    0.00
  17.900   10.34    7.89   -0.17   0.000   0.143   0.000    0.00
  17.950   10.05    8.46    0.10   0.000   0.143   0.000    0.00
  18.000   10.00    5.84    0.03   0.000   0.143   0.000    0.00
  18.050    9.92    4.32   -0.07   0.000   0.143   0.000    0.00
  18.100    9.99    3.84   -0.15   0.000   0.143   0.000    0.00
  18.150   10.03    3.97    0.22   0.000   0.143   0.000    0.00
  18.200   10.12    3.51    0.13   0.000   0.143   0.000    0.00
  18.250   10.05    3.22    0.06   0.000   0.143   0.000    0.00
  18.300   10.12    3.78   -0.02   0.000   0.143   0.000    0.00
  18.350   10.09    4.49    0.09   0.000   0.143   0.000    0.00
  18.400   10.11    5.29   -0.03   0.000   0.143   0.000    0.00
  18.450   10.01    3.61   -0.18   0.000   0.143   0.000    0.00
  18.500   10.08    3.30   -0.04   0.000   0.143   0.000    0.00
  18.550   10.21    2.80   -0.23   0.000   0.143   0.000    0.00
  18.600   10.44    1.99   -0.38   0.000   0.143   0.000    0.00
  18.650   10.58    2.33   -0.34   0.000   0.143   0.000    0.00
  18.700   10.44    2.18   -0.39   0.000   0.143   0.000    0.00
  18.750   10.38   -0.50    0.11   0.000   0.143   0.000    0.00
  18.800   10.20   -1.61   -0.15   0.000   0.143   0.000    0.00
  18.850   10.08    0.98   -0.17   0.000   0.143   0.000    0.00
  18.900    9.98   -0.10    0.04   0.000   0.143   0.000    0.00
  18.950   10.20    1.19    0.20   0.000   0.143   0.000    0.00
  19.000   10.40    1.40    0.13   0.000   0.143   0.000    0.00
  19.050   10.12    1.80    0.13   0.000   0.143   0.000    0.00
  19.100   10.03    2.14    0.17   0.000   0.143   0.000    0.00
  19.150   10.27    2.57    0.13   0.000   0.143   0.000    0.00
  19.200   10.43    2.36    0.17   0.000   0.143   0.000    0.00
  19.250   10.79    2.80    0.22   0.000   0.143   0.000    0.00
  19.300   10.52    2.46    0.08   0.000   0.143   0.000    0.00
  19.350   10.34    2.05    0.23   0.000   0.143   0.000    0.00
  19.400   10.41    1.48    0.40   0.000   0.143   0.000    0.00
  19.450   10.41    1.10    0.18   0.000   0.143   0.000    0.00
  19.500   10.36    2.60    0.11   0.000   0.143   0.000    0.00
  19.550   10.40    2.47   -0.10   0.000   0.143   0.000    0.00
  19.600   10.26    3.63    0.12   0.000   0.143   0.000    0.00
  19.650   10.35    3.46    0.05   0.000   0.143   0.000    0.00
  19.700   10.37    3.16   -0.15   0.000   0.143   0.000    0.00
  19.750   10.49    2.88   -0.13   0.000   0.143   0.000    0.00
  19.800   10.41    3.67    0.01   0.000   0.143   0.000    0.00
  19.850   10.16    4.76    0.09   0.000   0.143   0.000    0.00
  19.900   10.17    5.22    0.00   0.000   0.143   0.000    0.00
  19.950   10.41    5.43   -0.10   0.000   0.143   0.000    0.00
  20.000   10.17    4.12   -0.20   0.000   0.143   0.000    0.00
  20.050   10.27    3.78   -0.28   0.000   0.143   0.000    0.00
  20.100   10.36    3.04   -0.19   0.000   0.143   0.000    0.00
  20.150   10.37    3.50   -0.25   0.000   0.143   0.000    0.00
  20.200   10.29    3.33   -0.22   0.000   0.143   0.000    0.00
  20.250   10.41    3.86   -0.19   0.000   0.143   0.000    0.00
  20.300   10.34    2.80   -0.02   0.000   0.143   0.000    0.00
  20.350   10.55    2.88    0.06   0.000   0.143   0.000    0.00
  20.400   10.61    3.37    0.03   0.000   0.143   0.000    0.00
  20.450   10.55    3.36   -0.08   0.000   0.143   0.000    0.00
  20.500   10.56    2.70    0.01   0.000   0.143   0.000    0.00
  20.550   10.56    3.05   -0.10   0.000   0.143   0.000    0.00
  20.600   10.58    2.45    0.11   0.000   0.143   0.000    0.00
  20.650   10.54    2.86    0.17   0.000   0.143   0.000    0.00
  20.700   10.40    3.65    0.15   0.000   0.143   0.000    0.00
  20.750   10.57    4.27    0.36   0.000   0.143   0.000    0.00
  20.800   10.80    3.67    0.58   0.000   0.143   0.000    0.00
  20.850   11.20    2.99    0.48   0.000   0.143   0.000    0.00
  20.900   11.10    3.41    0.52   0.000   0.143   0.000    0.00
  20.950   10.67    4.35    0.60   0.000   0.143   0.000    0.00
  21.000   10.62    5.46    0.61   0.000   0.143   0.000    0.00
  21.050   10.65    4.09    0.54   0.000   0.143   0.000    0.00
  21.100   10.57    3.39    0.48   0.000   0.143   0.000    0.00
  21.150   10.70    3.92    0.49   0.000   0.143   0.000    0.00
  21.200   10.73    3.93    0.62   0.000   0.143   0.000    0.00
  21.250   10.81    5.13    0.70   0.000   0.143   0.000    0.00
  21.300   10.68    6.04    0.75   0.000   0.143   0.000    0.00
  21.350   10.72    4.52    0.77   0.000   0.143   0.000    0.00
  21.400   10.63    5.14    0.80   0.000   0.143   0.000    0.00
  21.450   10.63    5.62    0.58   0.000   0.143   0.000    0.00
  21.500   10.65    5.96    0.47   0.000   0.143   0.000    0.00
  21.550   10.80    5.59    0.91   0.000   0.143   0.000    0.00
  21.600   10.99    5.32    0.94   0.000   0.143   0.000    0.00
  21.650   10.78    5.71    0.80   0.000   0.143   0.000    0.00
  21.700   10.82    5.58    0.75   0.000   0.143   0.000    0.00
  21.750   10.72    5.26    0.96   0.000   0.143   0.000    0.00
  21.800   10.69    5.84    0.87   0.000   0.143   0.000    0.00
  21.850   10.80    5.84    0.98   0.000   0.143   0.000    0.00
  21.900   10.70    6.90    0.95   0.000   0.143   0.000    0.00
  21.950   10.57    6.00    1.07   0.000   0.143   0.000    0.00
  22.000   10.72    5.86    0.80   0.000   0.143   0.000    0.00
  22.050   10.79    5.94    0.86   0.000   0.143   0.000    0.00
  22.100   10.60    6.59    0.86   0.000   0.143   0.000    0.00
  22.150   10.50    7.33    0.41   0.000   0.143   0.000    0.00
  22.200   10.50    8.04    0.30   0.000   0.143   0.000    0.00
  22.250   10.40    8.60    0.44   0.000   0.143   0.000    0.00
  22.300   10.14    7.99    0.25   0.000   0.143   0.000    0.00
  22.350    9.92    8.67    0.09   0.000   0.143   0.000    0.00
  22.400    9.94    7.01    0.13   0.000   0.143   0.000    0.00
  22.450    9.88    6.83   -0.06   0.000   0.143   0.000    0.00
  22.500    9.85    6.33    0.07   0.000   0.143   0.000    0.00
  22.550    9.92    5.58    0.18   0.000   0.143   0.000    0.00
  22.600    9.91    5.31    0.13   0.000   0.143   0.000    0.00
  22.650    9.88    4.37   -0.12   0.000   0.143   0.000    0.00
  22.700    9.88    2.60    0.14   0.000   0.143   0.000    0.00
  22.750    9.75    2.29   -0.07   0.000   0.143   0.000    0.00