! This hub-height wind-speed file was generated by TurbSim (v1.06.00, 21-Sep-2012) on 06-Dec-2015 at 18:49:31.
!
! The requested statistics for this data were:
!    Mean Total Wind Speed =   11.000 m/s
!
!   Time  HorSpd  WndDir  VerSpd  HorShr  VerShr  LnVShr  GstSpd
!  (sec)   (m/s)   (deg)   (m/s)     (-)     (-)     (-)   (m/s)
   0.000   14.82    3.11   -1.51   0.000   0.143   0.000    0.00
   0.050   14.67    2.39   -1.34   0.000   0.143   0.000    0.00
   0.100   14.47    2.17   -1.32   0.000   0.143   0.000    0.00
   0.150   14.94    3.57   -1.14   0.000   0.143   0.000    0.00
   0.200   14.90    3.53   -1.07   0.000   0.143   0.000    0.00
   0.250   14.79    4.20   -0.99   0.000   0.143   0.000    0.00
   0.300   14.59    3.97   -0.81   0.000   0.143   0.000    0.00
   0.350   14.58    3.62   -0.91   0.000   0.143   0.000    0.00
   0.400   14.63    3.01   -0.69   0.000   0.143   0.000    0.00
   0.450   14.77    3.66   -0.69   0.000   0.143   0.000    0.00
   0.500   14.55    3.78   -0.82   0.000   0.143   0.000    0.00
   0.550   14.33    2.72   -0.92   0.000   0.143   0.000    0.00
   0.600   14.39    1.99   -0.87   0.000   0.143   0.000    0.00
   0.650   14.46    1.11   -0.92   0.000   0.143   0.000    0.00
   0.700   14.46    1.71   -1.07   0.000   0.143   0.000    0.00
   0.750   14.48    2.21   -0.86   0.000   0.143   0.000    0.00
   0.800   14.54    2.25   -0.53   0.000   0.143   0.000    0.00
   0.850   14.43    2.29   -0.98   0.000   0.143   0.000    0.00
   0.900   14.59    2.18   -1.47   0.000   0.143   0.000    0.00
   0.950   14.66    2.40   -1.65   0.000   0.143   0.000    0.00
   1.000   14.30    1.82   -1.83   0.000   0.143   0.000    0.00
   1.050   14.04    3.13   -1.81   0.000   0.143   0.000    0.00
   1.100   14.00    2.82   -1.73   0.000   0.143   0.000    0.00
   1.150   13.94    4.14   -1.52   0.000   0.143   0.000    0.00
   1.200   13.57    4.55   -1.66   0.000   0.143   0.000    0.00
   1.250   13.67    4.30   -1.55   0.000   0.143   0.000    0.00
   1.300   13.74    5.27   -1.61   0.000   0.143   0.000    0.00
   1.350   13.64    5.01   -1.44   0.000   0.143   0.000    0.00
   1.400   13.89    5.37   -1.58   0.000   0.143   0.000    0.00
   1.450   14.09    5.04   -1.86   0.000   0.143   0.000    0.00
   1.500   14.21    5.07   -1.79   0.000   0.143   0.000    0.00
   1.550   14.28    4.59   -1.58   0.000   0.143   0.000    0.00
   1.600   14.20    4.06   -1.82   0.000   0.143   0.000    0.00
   1.650   14.34    4.63   -1.78   0.000   0.143   0.000    0.00
   1.700   14.33    5.26   -1.78   0.000   0.143   0.000    0.00
   1.750   14.22    5.11   -1.24   0.000   0.143   0.000    0.00
   1.800   14.22    4.45   -1.25   0.000   0.143   0.000    0.00
   1.850   14.10    4.35   -1.52   0.000   0.143   0.000    0.00
   1.900   14.28    3.08   -1.40   0.000   0.143   0.000    0.00
   1.950   14.16    3.39   -1.57   0.000   0.143   0.000    0.00
   2.000   14.00    4.69   -1.68   0.000   0.143   0.000    0.00
   2.050   13.95    4.94   -1.25   0.000   0.143   0.000    0.00
   2.100   13.87    3.77   -1.42   0.000   0.143   0.000    0.00
   2.150   13.59    3.34   -1.38   0.000   0.143   0.000    0.00
   2.200   13.33    4.64   -1.52   0.000   0.143   0.000    0.00
   2.250   13.69    5.06   -1.21   0.000   0.143   0.000    0.00
   2.300   13.96    3.97   -1.24   0.000   0.143   0.000    0.00
   2.350   14.01    4.96   -1.35   0.000   0.143   0.000    0.00
   2.400   13.93    4.84   -1.60   0.000   0.143   0.000    0.00
   2.450   14.04    3.89   -1.86   0.000   0.143   0.000    0.00
   2.500   14.31    3.99   -2.00   0.000   0.143   0.000    0.00
   2.550   14.09    3.82   -1.98   0.000   0.143   0.000    0.00
   2.600   13.83    3.76   -2.30   0.000   0.143   0.000    0.00
   2.650   13.64    3.90   -2.39   0.000   0.143   0.000    0.00
   2.700   13.65    4.87   -2.08   0.000   0.143   0.000    0.00
   2.750   13.80    6.64   -2.06   0.000   0.143   0.000    0.00
   2.800   14.17    7.06   -2.05   0.000   0.143   0.000    0.00
   2.850   13.90    6.31   -1.80   0.000   0.143   0.000    0.00
   2.900   14.05    5.64   -1.79   0.000   0.143   0.000    0.00
   2.950   13.93    4.53   -1.61   0.000   0.143   0.000    0.00
   3.000   13.85    5.11   -1.65   0.000   0.143   0.000    0.00
   3.050   13.86    4.95   -1.66   0.000   0.143   0.000    0.00
   3.100   13.57    4.13   -1.46   0.000   0.143   0.000    0.00
   3.150   13.66    3.82   -1.24   0.000   0.143   0.000    0.00
   3.200   13.52    4.06   -1.05   0.000   0.143   0.000    0.00
   3.250   13.49    4.48   -0.92   0.000   0.143   0.000    0.00
   3.300   13.65    4.88   -1.20   0.000   0.143   0.000    0.00
   3.350   13.35    4.23   -1.17   0.000   0.143   0.000    0.00
   3.400   13.29    2.99   -1.25   0.000   0.143   0.000    0.00
   3.450   13.57    2.87   -1.16   0.000   0.143   0.000    0.00
   3.500   13.40    2.62   -1.19   0.000   0.143   0.000    0.00
   3.550   13.21   -0.07   -1.23   0.000   0.143   0.000    0.00
   3.600   13.20    0.07   -1.28   0.000   0.143   0.000    0.00
   3.650   13.58    1.26   -1.23   0.000   0.143   0.000    0.00
   3.700   13.26    2.74   -1.25   0.000   0.143   0.000    0.00
   3.750   13.39    3.67   -1.33   0.000   0.143   0.000    0.00
   3.800   13.58    4.98   -1.46   0.000   0.143   0.000    0.00
   3.850   13.33    5.67   -1.44   0.000   0.143   0.000    0.00
   3.900   13.28    4.58   -1.43   0.000   0.143   0.000    0.00
   3.950   13.17    5.22   -1.58   0.000   0.143   0.000    0.00
   4.000   12.67    5.51   -1.58   0.000   0.143   0.000    0.00
   4.050   12.70    3.86   -1.81   0.000   0.143   0.000    0.00
   4.100   12.81    2.68   -2.01   0.000   0.143   0.000    0.00
   4.150   13.15    3.51   -2.12   0.000   0.143   0.000    0.00
   4.200   13.17    3.20   -2.23   0.000   0.143   0.000    0.00
   4.250   12.98    4.22   -2.31   0.000   0.143   0.000    0.00
   4.300   13.02    3.47   -2.03   0.000   0.143   0.000    0.00
   4.350   12.88    4.35   -1.82   0.000   0.143   0.000    0.00
   4.400   13.00    5.01   -1.61   0.000   0.143   0.000    0.00
   4.450   13.27    6.58   -1.50   0.000   0.143   0.000    0.00
   4.500   13.33    6.65   -1.45   0.000   0.143   0.000    0.00
   4.550   13.09    5.76   -1.34   0.000   0.143   0.000    0.00
   4.600   12.89    7.57   -1.34   0.000   0.143   0.000    0.00
   4.650   12.69    7.91   -1.09   0.000   0.143   0.000    0.00
   4.700   12.88    8.67   -1.05   0.000   0.143   0.000    0.00
   4.750   12.69    6.98   -0.89   0.000   0.143   0.000    0.00
   4.800   12.79    6.94   -1.03   0.000   0.143   0.000    0.00
   4.850   12.83    6.57   -0.89   0.000   0.143   0.000    0.00
   4.900   12.40    4.57   -0.65   0.000   0.143   0.000    0.00
   4.950   12.27    5.81   -0.73   0.000   0.143   0.000    0.00
   5.000   12.34    7.16   -0.66   0.000   0.143   0.000    0.00
   5.050   12.24    7.10   -0.98   0.000   0.143   0.000    0.00
   5.100   12.25    6.15   -0.95   0.000   0.143   0.000    0.00
   5.150   12.03    5.48   -1.08   0.000   0.143   0.000    0.00
   5.200   12.14    6.74   -1.10   0.000   0.143   0.000    0.00
   5.250   12.05    6.09   -1.11   0.000   0.143   0.000    0.00
   5.300   12.35    5.31   -1.20   0.000   0.143   0.000    0.00
   5.350   12.50    5.16   -1.11   0.000   0.143   0.000    0.00
   5.400   12.64    4.26   -1.18   0.000   0.143   0.000    0.00
   5.450   12.71    4.30   -1.35   0.000   0.143   0.000    0.00
   5.500   12.71    2.54   -1.36   0.000   0.143   0.000    0.00
   5.550   12.83    2.61   -1.63   0.000   0.143   0.000    0.00
   5.600   13.19    2.05   -1.77   0.000   0.143   0.000    0.00
   5.650   13.10    1.65   -1.93   0.000   0.143   0.000    0.00
   5.700   13.28    3.09   -1.67   0.000   0.143   0.000    0.00
   5.750   13.24    3.82   -1.39   0.000   0.143   0.000    0.00
   5.800   13.02    4.63   -1.68   0.000   0.143   0.000    0.00
   5.850   12.99    4.67   -1.65   0.000   0.143   0.000    0.00
   5.900   13.18    4.09   -1.80   0.000   0.143   0.000    0.00
   5.950   13.23    3.60   -1.37   0.000   0.143   0.000    0.00
   6.000   13.46    4.19   -1.38   0.000   0.143   0.000    0.00
   6.050   13.49    4.11   -1.39   0.000   0.143   0.000    0.00
   6.100   13.33    4.30   -1.35   0.000   0.143   0.000    0.00
   6.150   13.39    5.31   -1.41   0.000   0.143   0.000    0.00
   6.200   13.35    5.14   -1.51   0.000   0.143   0.000    0.00
   6.250   13.42    2.39   -1.46   0.000   0.143   0.000    0.00
   6.300   13.45    2.21   -1.48   0.000   0.143   0.000    0.00
   6.350   13.46    0.99   -1.47   0.000   0.143   0.000    0.00
   6.400   13.41    2.09   -1.39   0.000   0.143   0.000    0.00
   6.450   13.48    2.22   -1.26   0.000   0.143   0.000    0.00
   6.500   13.50    1.63   -1.31   0.000   0.143   0.000    0.00
   6.550   13.43    2.11   -1.44   0.000   0.143   0.000    0.00
   6.600   13.46    2.68   -1.50   0.000   0.143   0.000    0.00
   6.650   13.58    0.86   -1.38   0.000   0.143   0.000    0.00
   6.700   13.77   -0.05   -1.26   0.000   0.143   0.000    0.00
   6.750   14.01   -0.64   -0.96   0.000   0.143   0.000    0.00
   6.800   13.74   -1.12   -0.78   0.000   0.143   0.000    0.00
   6.850   13.83   -1.81   -0.70   0.000   0.143   0.000    0.00
   6.900   13.47   -0.73   -0.89   0.000   0.143   0.000    0.00
   6.950   13.37   -1.29   -0.78   0.000   0.143   0.000    0.00
   7.000   13.39    0.16   -0.73   0.000   0.143   0.000    0.00
   7.050   13.45    1.68   -0.49   0.000   0.143   0.000    0.00
   7.100   13.48    0.22   -1.07   0.000   0.143   0.000    0.00
   7.150   13.30    0.04   -0.96   0.000   0.143   0.000    0.00
   7.200   13.26    0.46   -0.87   0.000   0.143   0.000    0.00
   7.250   13.32    2.13   -1.13   0.000   0.143   0.000    0.00
   7.300   13.29    3.49   -1.17   0.000   0.143   0.000    0.00
   7.350   13.05    2.82   -1.43   0.000   0.143   0.000    0.00
   7.400   13.37    4.21   -1.45   0.000   0.143   0.000    0.00
   7.450   13.51    3.48   -1.59   0.000   0.143   0.000    0.00
   7.500   13.58    1.85   -0.91   0.000   0.143   0.000    0.00
   7.550   13.89    1.98   -0.89   0.000   0.143   0.000    0.00
   7.600   13.85    2.73   -0.92   0.000   0.143   0.000    0.00
   7.650   13.80    2.09   -1.01   0.000   0.143   0.000    0.00
   7.700   13.62    3.08   -0.65   0.000   0.143   0.000    0.00
   7.750   13.75    3.34   -0.70   0.000   0.143   0.000    0.00
   7.800   13.60    2.36   -0.85   0.000   0.143   0.000    0.00
   7.850   13.61    2.27   -0.75   0.000   0.143   0.000    0.00
   7.900   13.64    1.82   -1.03   0.000   0.143   0.000    0.00
   7.950   13.32    2.62   -0.91   0.000   0.143   0.000    0.00
   8.000   13.28    3.89   -1.21   0.000   0.143   0.000    0.00
   8.050   13.43    4.60   -0.78   0.000   0.143   0.000    0.00
   8.100   13.48    3.97   -0.54   0.000   0.143   0.000    0.00
   8.150   13.30    3.41   -0.98   0.000   0.143   0.000    0.00
   8.200   13.08    4.32   -1.06   0.000   0.143   0.000    0.00
   8.250   13.09    5.35   -1.16   0.000   0.143   0.000    0.00
   8.300   13.15    5.73   -1.51   0.000   0.143   0.000    0.00
   8.350   13.13    5.20   -1.56   0.000   0.143   0.000    0.00
   8.400   13.12    4.17   -1.66   0.000   0.143   0.000    0.00
   8.450   13.11    4.28   -1.35   0.000   0.143   0.000    0.00
   8.500   13.48    5.45   -1.07   0.000   0.143   0.000    0.00
   8.550   13.61    5.48   -1.31   0.000   0.143   0.000    0.00
   8.600   13.46    4.91   -1.33   0.000   0.143   0.000    0.00
   8.650   13.52    5.08   -1.45   0.000   0.143   0.000    0.00
   8.700   13.35    4.76   -1.37   0.000   0.143   0.000    0.00
   8.750   13.65    5.00   -1.13   0.000   0.143   0.000    0.00
   8.800   13.41    5.30   -1.14   0.000   0.143   0.000    0.00
   8.850   13.18    5.61   -1.01   0.000   0.143   0.000    0.00
   8.900   13.05    3.90   -0.91   0.000   0.143   0.000    0.00
   8.950   12.92    3.50   -0.98   0.000   0.143   0.000    0.00
   9.000   12.97    2.01   -1.16   0.000   0.143   0.000    0.00
   9.050   13.26    1.61   -1.51   0.000   0.143   0.000    0.00
   9.100   13.34    2.63   -1.36   0.000   0.143   0.000    0.00
   9.150   13.29    2.53   -1.23   0.000   0.143   0.000    0.00
   9.200   13.38    1.66   -0.90   0.000   0.143   0.000    0.00
   9.250   13.51    2.63   -0.92   0.000   0.143   0.000    0.00
   9.300   13.45    2.47   -1.13   0.000   0.143   0.000    0.00
   9.350   13.29    2.23   -1.21   0.000   0.143   0.000    0.00
   9.400   13.31    3.06   -0.68   0.000   0.143   0.000    0.00
   9.450   13.36    3.33   -0.65   0.000   0.143   0.000    0.00
   9.500   13.49    4.57   -0.76   0.000   0.143   0.000    0.00
   9.550   13.16    3.87   -0.38   0.000   0.143   0.000    0.00
   9.600   13.24    2.16   -0.70   0.000   0.143   0.000    0.00
   9.650   13.22    3.77   -1.13   0.000   0.143   0.000    0.00
   9.700   13.22    3.81   -0.99   0.000   0.143   0.000    0.00
   9.750   13.21    2.92   -1.21   0.000   0.143   0.000    0.00
   9.800   13.02    2.82   -1.07   0.000   0.143   0.000    0.00
   9.850   13.15    2.71   -1.07   0.000   0.143   0.000    0.00
   9.900   13.17    2.53   -1.59   0.000   0.143   0.000    0.00
   9.950   13.11    1.52   -1.60   0.000   0.143   0.000    0.00
  10.000   13.20    0.94   -1.59   0.000   0.143   0.000    0.00
  10.050   13.31    1.51   -1.53   0.000   0.143   0.000    0.00
  10.100   13.49    2.10   -1.82   0.000   0.143   0.000    0.00
  10.150   13.56    2.59   -1.70   0.000   0.143   0.000    0.00
  10.200   13.24    2.79   -1.25   0.000   0.143   0.000    0.00
  10.250   13.29    2.87   -1.59   0.000   0.143   0.000    0.00
  10.300   13.38    2.90   -1.79   0.000   0.143   0.000    0.00
  10.350   13.13    4.51   -1.60   0.000   0.143   0.000    0.00
  10.400   12.77    5.20   -1.74   0.000   0.143   0.000    0.00
  10.450   12.80    5.57   -1.59   0.000   0.143   0.000    0.00
  10.500   12.99    5.11   -1.64   0.000   0.143   0.000    0.00
  10.550   13.22    4.79   -1.41   0.000   0.143   0.000    0.00
  10.600   13.27    4.25   -1.39   0.000   0.143   0.000    0.00
  10.650   13.43    5.45   -1.44   0.000   0.143   0.000    0.00
  10.700   13.54    6.20   -1.23   0.000   0.143   0.000    0.00
  10.750   13.48    6.30   -1.10   0.000   0.143   0.000    0.00
  10.800   13.24    5.43   -0.94   0.000   0.143   0.000    0.00
  10.850   13.09    5.25   -0.89   0.000   0.143   0.000    0.00
  10.900   13.10    4.88   -0.85   0.000   0.143   0.000    0.00
  10.950   13.05    4.20   -0.71   0.000   0.143   0.000    0.00
  11.000   12.93    4.15   -0.83   0.000   0.143   0.000    0.00
  11.050   12.94    3.29   -0.60   0.000   0.143   0.000    0.00
  11.100   12.66    3.97   -0.65   0.000   0.143   0.000    0.00
  11.150   12.88    3.29   -0.83   0.000   0.143   0.000    0.00
  11.200   12.90    2.36   -0.94   0.000   0.143   0.000    0.00
  11.250   12.76    1.89   -0.82   0.000   0.143   0.000    0.00
  11.300   12.53    1.08   -0.68   0.000   0.143   0.000    0.00
  11.350   12.70    0.79   -0.78   0.000   0.143   0.000    0.00
  11.400   12.46   -1.11   -0.81   0.000   0.143   0.000    0.00
  11.450   12.52   -2.59   -0.91   0.000   0.143   0.000    0.00
  11.500   12.39   -1.78   -0.83   0.000   0.143   0.000    0.00
  11.550   12.71   -0.32   -1.10   0.000   0.143   0.000    0.00
  11.600   13.01   -1.25   -0.85   0.000   0.143   0.000    0.00
  11.650   12.98    0.15   -0.82   0.000   0.143   0.000    0.00
  11.700   12.66    0.08   -0.68   0.000   0.143   0.000    0.00
  11.750   12.57    2.04   -0.40   0.000   0.143   0.000    0.00
  11.800   12.39    3.35   -0.48   0.000   0.143   0.000    0.00
  11.850   12.34    1.71   -0.18   0.000   0.143   0.000    0.00
  11.900   12.81   -0.09   -0.23   0.000   0.143   0.000    0.00
  11.950   12.97   -0.93   -0.24   0.000   0.143   0.000    0.00
  12.000   12.92    0.39   -0.48   0.000   0.143   0.000    0.00
  12.050   12.61    1.06   -0.33   0.000   0.143   0.000    0.00
  12.100   12.66    0.74   -0.50   0.000   0.143   0.000    0.00
  12.150   12.87    0.51   -0.84   0.000   0.143   0.000    0.00
  12.200   13.00    1.21   -0.77   0.000   0.143   0.000    0.00
  12.250   12.95    0.41   -1.16   0.000   0.143   0.000    0.00
  12.300   13.02   -0.24   -1.35   0.000   0.143   0.000    0.00
  12.350   12.97   -0.48   -1.39   0.000   0.143   0.000    0.00
  12.400   12.81   -0.04   -1.22   0.000   0.143   0.000    0.00
  12.450   12.76   -0.26   -1.13   0.000   0.143   0.000    0.00
  12.500   12.80    0.25   -0.96   0.000   0.143   0.000    0.00
  12.550   12.87    1.41   -1.10   0.000   0.143   0.000    0.00
  12.600   12.68    2.24   -0.83   0.000   0.143   0.000    0.00
  12.650   12.59    0.24   -1.35   0.000   0.143   0.000    0.00
  12.700   12.46    0.45   -1.53   0.000   0.143   0.000    0.00
  12.750   12.25    2.05   -1.66   0.000   0.143   0.000    0.00
  12.800   12.27    1.17   -1.48   0.000   0.143   0.000    0.00
  12.850   12.42    1.39   -1.65   0.000   0.143   0.000    0.00
  12.900   12.50    1.37   -1.69   0.000   0.143   0.000    0.00
  12.950   12.70   -0.10   -1.63   0.000   0.143   0.000    0.00
  13.000   12.96   -1.09   -1.51   0.000   0.143   0.000    0.00
  13.050   13.26    0.41   -1.49   0.000   0.143   0.000    0.00
  13.100   13.35    0.42   -1.38   0.000   0.143   0.000    0.00
  13.150   13.20   -1.09   -1.43   0.000   0.143   0.000    0.00
  13.200   12.95   -1.93   -1.27   0.000   0.143   0.000    0.00
  13.250   12.96   -2.70   -1.16   0.000   0.143   0.000    0.00
  13.300   13.07   -1.42   -0.96   0.000   0.143   0.000    0.00
  13.350   12.83   -2.84   -0.73   0.000   0.143   0.000    0.00
  13.400   12.79   -1.81   -0.60   0.000   0.143   0.000    0.00
  13.450   13.22   -0.23   -0.76   0.000   0.143   0.000    0.00
  13.500   13.13    0.69   -0.95   0.000   0.143   0.000    0.00
  13.550   12.84   -0.05   -0.72   0.000   0.143   0.000    0.00
  13.600   12.71    0.74   -0.49   0.000   0.143   0.000    0.00
  13.650   12.88    0.73   -0.53   0.000   0.143   0.000    0.00
  13.700   13.04    2.44   -0.20   0.000   0.143   0.000    0.00
  13.750   12.94    2.19   -0.23   0.000   0.143   0.000    0.00
  13.800   12.98    3.04   -0.03   0.000   0.143   0.000    0.00
  13.850   12.93    3.99   -0.15   0.000   0.143   0.000    0.00
  13.900   13.00    3.60   -0.37   0.000   0.143   0.000    0.00
  13.950   12.98    3.84   -0.54   0.000   0.143   0.000    0.00
  14.000   12.87    3.65   -0.07   0.000   0.143   0.000    0.00
  14.050   12.89    3.46    0.23   0.000   0.143   0.000    0.00
  14.100   13.05    3.45   -0.17   0.000   0.143   0.000    0.00
  14.150   12.82    3.63   -0.15   0.000   0.143   0.000    0.00
  14.200   13.08    4.19   -0.21   0.000   0.143   0.000    0.00
  14.250   12.88    5.31    0.06   0.000   0.143   0.000    0.00
  14.300   13.16    5.15   -0.19   0.000   0.143   0.000    0.00
  14.350   13.07    4.63   -0.27   0.000   0.143   0.000    0.00
  14.400   12.79    4.82   -0.15   0.000   0.143   0.000    0.00
  14.450   12.41    3.98   -0.21   0.000   0.143   0.000    0.00
  14.500   12.59    2.14   -0.08   0.000   0.143   0.000    0.00
  14.550   12.67    0.63   -0.05   0.000   0.143   0.000    0.00
  14.600   13.07    0.16   -0.07   0.000   0.143   0.000    0.00
  14.650   12.83    2.46   -0.18   0.000   0.143   0.000    0.00
  14.700   12.68    3.07   -0.31   0.000   0.143   0.000    0.00
  14.750   12.73    3.57   -0.17   0.000   0.143   0.000    0.00
  14.800   12.73    4.09    0.17   0.000   0.143   0.000    0.00
  14.850   12.40    3.64    0.43   0.000   0.143   0.000    0.00
  14.900   12.37    3.69    0.48   0.000   0.143   0.000    0.00
  14.950   12.22    2.80    0.35   0.000   0.143   0.000    0.00
  15.000   12.24    2.55    0.30   0.000   0.143   0.000    0.00
  15.050   12.00    4.09    0.16   0.000   0.143   0.000    0.00
  15.100   12.13    3.42   -0.15   0.000   0.143   0.000    0.00
  15.150   12.10    4.38   -0.08   0.000   0.143   0.000    0.00
  15.200   12.18    3.56   -0.01   0.000   0.143   0.000    0.00
  15.250   12.19    3.56   -0.09   0.000   0.143   0.000    0.00
  15.300   12.09    4.12    0.19   0.000   0.143   0.000    0.00
  15.350   11.91    4.30    0.45   0.000   0.143   0.000    0.00
  15.400   11.87    4.20    0.64   0.000   0.143   0.000    0.00
  15.450   11.53    5.32    0.78   0.000   0.143   0.000    0.00
  15.500   11.35    5.44    1.03   0.000   0.143   0.000    0.00
  15.550   11.34    4.48    1.42   0.000   0.143   0.000    0.00
  15.600   11.51    5.23    1.43   0.000   0.143   0.000    0.00
  15.650   11.71    5.98    1.43   0.000   0.143   0.000    0.00
  15.700   11.68    5.37    1.45   0.000   0.143   0.000    0.00
  15.750   12.05    4.46    1.47   0.000   0.143   0.000    0.00
  15.800   11.98    4.46    1.40   0.000   0.143   0.000    0.00
  15.850   11.97    4.28    1.51   0.000   0.143   0.000    0.00
  15.900   11.93    3.99    1.56   0.000   0.143   0.000    0.00
  15.950   11.80    3.48    1.51   0.000   0.143   0.000    0.00
  16.000   11.62    3.27    1.70   0.000   0.143   0.000    0.00
  16.050   11.60    1.06    1.74   0.000   0.143   0.000    0.00
  16.100   11.70    3.52    1.74   0.000   0.143   0.000    0.00
  16.150   11.75    2.92    1.20   0.000   0.143   0.000    0.00
  16.200   11.83    2.87    1.44   0.000   0.143   0.000    0.00
  16.250   11.92    3.20    1.56   0.000   0.143   0.000    0.00
  16.300   11.89    2.22    1.35   0.000   0.143   0.000    0.00
  16.350   11.69    2.97    1.55   0.000   0.143   0.000    0.00
  16.400   11.64    5.23    1.55   0.000   0.143   0.000    0.00
  16.450   11.89    2.89    1.28   0.000   0.143   0.000    0.00
  16.500   12.00    2.89    1.22   0.000   0.143   0.000    0.00
  16.550   11.92    4.20    1.52   0.000   0.143   0.000    0.00
  16.600   12.03    4.50    1.35   0.000   0.143   0.000    0.00
  16.650   11.75    5.07    1.32   0.000   0.143   0.000    0.00
  16.700   11.93    5.72    1.29   0.000   0.143   0.000    0.00
  16.750   12.09    5.50    0.93   0.000   0.143   0.000    0.00
  16.800   12.23    5.15    0.93   0.000   0.143   0.000    0.00
  16.850   12.11    5.16    0.60   0.000   0.143   0.000    0.00
  16.900   12.10    4.27    0.41   0.000   0.143   0.000    0.00
  16.950   12.25    4.40    0.12   0.000   0.143   0.000    0.00
  17.000   12.20    4.79   -0.46   0.000   0.143   0.000    0.00
  17.050   12.30    6.56   -0.70   0.000   0.143   0.000    0.00
  17.100   12.43    7.64   -0.28   0.000   0.143   0.000    0.00
  17.150   12.34    7.52    0.35   0.000   0.143   0.000    0.00
  17.200   12.18    6.30    0.27   0.000   0.143   0.000    0.00
  17.250   12.14    7.37    0.12   0.000   0.143   0.000    0.00
  17.300   12.11    7.35    0.15   0.000   0.143   0.000    0.00
  17.350   12.28    8.13   -0.08   0.000   0.143   0.000    0.00
  17.400   12.23    8.47   -0.23   0.000   0.143   0.000    0.00
  17.450   12.20    9.34   -0.23   0.000   0.143   0.000    0.00
  17.500   12.39    9.51   -0.11   0.000   0.143   0.000    0.00
  17.550   12.27    9.45    0.01   0.000   0.143   0.000    0.00
  17.600   12.25    8.86   -0.28   0.000   0.143   0.000    0.00
  17.650   12.04    9.41   -0.37   0.000   0.143   0.000    0.00
  17.700   12.11    8.20   -0.31   0.000   0.143   0.000    0.00
  17.750   11.97    7.98   -0.30   0.000   0.143   0.000    0.00
  17.800   11.68    8.47   -0.44   0.000   0.143   0.000    0.00
  17.850   11.91    8.32   -0.18   0.000   0.143   0.000    0.00
  17.900   11.88    7.93   -0.22   0.000   0.143   0.000    0.00
  17.950   11.52    8.53    0.10   0.000   0.143   0.000    0.00
  18.000   11.47    5.76    0.02   0.000   0.143   0.000    0.00
  18.050   11.38    4.15   -0.10   0.000   0.143   0.000    0.00
  18.100   11.45    3.64   -0.20   0.000   0.143   0.000    0.00
  18.150   11.50    3.77    0.25   0.000   0.143   0.000    0.00
  18.200   11.61    3.29    0.15   0.000   0.143   0.000    0.00
  18.250   11.54    2.98    0.06   0.000   0.143   0.000    0.00
  18.300   11.62    3.58   -0.05   0.000   0.143   0.000    0.00
  18.350   11.57    4.33    0.09   0.000   0.143   0.000    0.00
  18.400   11.60    5.18   -0.06   0.000   0.143   0.000    0.00
  18.450   11.49    3.40   -0.23   0.000   0.143   0.000    0.00
  18.500   11.57    3.07   -0.06   0.000   0.143   0.000    0.00
  18.550   11.73    2.55   -0.29   0.000   0.143   0.000    0.00
  18.600   12.00    1.70   -0.48   0.000   0.143   0.000    0.00
  18.650   12.18    2.06   -0.44   0.000   0.143   0.000    0.00
  18.700   12.01    1.90   -0.50   0.000   0.143   0.000    0.00
  18.750   11.94   -0.94    0.11   0.000   0.143   0.000    0.00
  18.800   11.72   -2.12   -0.21   0.000   0.143   0.000    0.00
  18.850   11.57    0.62   -0.22   0.000   0.143   0.000    0.00
  18.900   11.45   -0.53    0.03   0.000   0.143   0.000    0.00
  18.950   11.72    0.85    0.22   0.000   0.143   0.000    0.00
  19.000   11.96    1.07    0.13   0.000   0.143   0.000    0.00
  19.050   11.62    1.49    0.14   0.000   0.143   0.000    0.00
  19.100   11.51    1.85    0.19   0.000   0.143   0.000    0.00
  19.150   11.80    2.31    0.14   0.000   0.143   0.000    0.00
  19.200   12.00    2.09    0.18   0.000   0.143   0.000    0.00
  19.250   12.44    2.57    0.24   0.000   0.143   0.000    0.00
  19.300   12.10    2.20    0.07   0.000   0.143   0.000    0.00
  19.350   11.89    1.76    0.25   0.000   0.143   0.000    0.00
  19.400   11.97    1.17    0.46   0.000   0.143   0.000    0.00
  19.450   11.98    0.76    0.20   0.000   0.143   0.000    0.00
  19.500   11.91    2.34    0.10   0.000   0.143   0.000    0.00
  19.550   11.96    2.22   -0.15   0.000   0.143   0.000    0.00
  19.600   11.78    3.43    0.12   0.000   0.143   0.000    0.00
  19.650   11.90    3.25    0.04   0.000   0.143   0.000    0.00
  19.700   11.93    2.94   -0.21   0.000   0.143   0.000    0.00
  19.750   12.06    2.64   -0.19   0.000   0.143   0.000    0.00
  19.800   11.98    3.47   -0.02   0.000   0.143   0.000    0.00
  19.850   11.67    4.62    0.08   0.000   0.143   0.000    0.00
  19.900   11.68    5.12   -0.02   0.000   0.143   0.000    0.00
  19.950   11.97    5.34   -0.16   0.000   0.143   0.000    0.00
  20.000   11.68    3.95   -0.27   0.000   0.143   0.000    0.00
  20.050   11.80    3.60   -0.38   0.000   0.143   0.000    0.00
  20.100   11.91    2.81   -0.26   0.000   0.143   0.000    0.00
  20.150   11.93    3.30   -0.33   0.000   0.143   0.000    0.00
  20.200   11.83    3.11   -0.30   0.000   0.143   0.000    0.00
  20.250   11.98    3.69   -0.26   0.000   0.143   0.000    0.00
  20.300   11.89    2.56   -0.06   0.000   0.143   0.000    0.00
  20.350   12.14    2.64    0.04   0.000   0.143   0.000    0.00
  20.400   12.22    3.17    0.01   0.000   0.143   0.000    0.00
  20.450   12.14    3.15   -0.13   0.000   0.143   0.000    0.00
  20.500   12.15    2.45   -0.02   0.000   0.143   0.000    0.00
  20.550   12.15    2.82   -0.15   0.000   0.143   0.000    0.00
  20.600   12.18    2.20    0.10   0.000   0.143   0.000    0.00
  20.650   12.13    2.62    0.17   0.000   0.143   0.000    0.00
  20.700   11.96    3.46    0.14   0.000   0.143   0.000    0.00
  20.750   12.16    4.11    0.40   0.000   0.143   0.000    0.00
  20.800   12.45    3.49    0.66   0.000   0.143   0.000    0.00
  20.850   12.94    2.78    0.54   0.000   0.143   0.000    0.00
  20.900   12.82    3.22    0.58   0.000   0.143   0.000    0.00
  20.950   12.29    4.21    0.69   0.000   0.143   0.000    0.00
  21.000   12.23    5.38    0.70   0.000   0.143   0.000    0.00
  21.050   12.27    3.93    0.62   0.000   0.143   0.000    0.00
  21.100   12.17    3.19    0.54   0.000   0.143   0.000    0.00
  21.150   12.33    3.75    0.56   0.000   0.143   0.000    0.00
  21.200   12.37    3.76    0.71   0.000   0.143   0.000    0.00
  21.250   12.46    5.03    0.80   0.000   0.143   0.000    0.00
  21.300   12.30    5.99    0.87   0.000   0.143   0.000    0.00
  21.350   12.35    4.38    0.89   0.000   0.143   0.000    0.00
  21.400   12.23    5.03    0.93   0.000   0.143   0.000    0.00
  21.450   12.24    5.55    0.66   0.000   0.143   0.000    0.00
  21.500   12.26    5.91    0.53   0.000   0.143   0.000    0.00
  21.550   12.45    5.52    1.06   0.000   0.143   0.000    0.00
  21.600   12.68    5.23    1.10   0.000   0.143   0.000    0.00
  21.650   12.43    5.64    0.92   0.000   0.143   0.000    0.00
  21.700   12.47    5.51    0.86   0.000   0.143   0.000    0.00
  21.750   12.36    5.16    1.12   0.000   0.143   0.000    0.00
  21.800   12.31    5.78    1.01   0.000   0.143   0.000    0.00
  21.850   12.44    5.78    1.14   0.000   0.143   0.000    0.00
  21.900   12.32    6.90    1.10   0.000   0.143   0.000    0.00
  21.950   12.17    5.95    1.25   0.000   0.143   0.000    0.00
  22.000   12.36    5.80    0.92   0.000   0.143   0.000    0.00
  22.050   12.44    5.89    0.99   0.000   0.143   0.000    0.00
  22.100   12.21    6.57    1.00   0.000   0.143   0.000    0.00
  22.150   12.08    7.36    0.45   0.000   0.143   0.000    0.00
  22.200   12.08    8.11    0.32   0.000   0.143   0.000    0.00
  22.250   11.96    8.69    0.49   0.000   0.143   0.000    0.00
  22.300   11.65    8.05    0.26   0.000   0.143   0.000    0.00
  22.350   11.37    8.77    0.06   0.000   0.143   0.000    0.00
  22.400   11.41    7.01    0.11   0.000   0.143   0.000    0.00
  22.450   11.32    6.82   -0.12   0.000   0.143   0.000    0.00
  22.500   11.29    6.29    0.04   0.000   0.143   0.000    0.00
  22.550   11.38    5.51    0.16   0.000   0.143   0.000    0.00
  22.600   11.37    5.22    0.11   0.000   0.143   0.000    0.00
  22.650   11.34    4.22   -0.19   0.000   0.143   0.000    0.00
  22.700   11.33    2.34    0.13   0.000   0.143   0.000    0.00
  22.750   11.17    2.02   -0.13   0.000   0.143   0.000    0.00