! This hub-height wind-speed file was generated by TurbSim (v1.06.00, 21-Sep-2012) on 07-Dec-2015 at 15:39:33.
!
! The requested statistics for this data were:
!    Mean Total Wind Speed =   10.500 m/s
!
!   Time  HorSpd  WndDir  VerSpd  HorShr  VerShr  LnVShr  GstSpd
!  (sec)   (m/s)   (deg)   (m/s)     (-)     (-)     (-)   (m/s)
   0.000   14.14    3.18   -1.44   0.000   0.143   0.000    0.00
   0.050   14.00    2.47   -1.29   0.000   0.143   0.000    0.00
   0.100   13.81    2.25   -1.26   0.000   0.143   0.000    0.00
   0.150   14.25    3.63   -1.10   0.000   0.143   0.000    0.00
   0.200   14.21    3.59   -1.03   0.000   0.143   0.000    0.00
   0.250   14.11    4.25   -0.96   0.000   0.143   0.000    0.00
   0.300   13.92    4.03   -0.78   0.000   0.143   0.000    0.00
   0.350   13.91    3.68   -0.88   0.000   0.143   0.000    0.00
   0.400   13.96    3.08   -0.68   0.000   0.143   0.000    0.00
   0.450   14.09    3.72   -0.67   0.000   0.143   0.000    0.00
   0.500   13.89    3.84   -0.80   0.000   0.143   0.000    0.00
   0.550   13.68    2.80   -0.89   0.000   0.143   0.000    0.00
   0.600   13.73    2.08   -0.85   0.000   0.143   0.000    0.00
   0.650   13.80    1.22   -0.89   0.000   0.143   0.000    0.00
   0.700   13.79    1.81   -1.04   0.000   0.143   0.000    0.00
   0.750   13.82    2.30   -0.84   0.000   0.143   0.000    0.00
   0.800   13.88    2.33   -0.53   0.000   0.143   0.000    0.00
   0.850   13.77    2.38   -0.95   0.000   0.143   0.000    0.00
   0.900   13.92    2.27   -1.41   0.000   0.143   0.000    0.00
   0.950   13.99    2.49   -1.58   0.000   0.143   0.000    0.00
   1.000   13.64    1.91   -1.75   0.000   0.143   0.000    0.00
   1.050   13.41    3.21   -1.73   0.000   0.143   0.000    0.00
   1.100   13.37    2.90   -1.65   0.000   0.143   0.000    0.00
   1.150   13.31    4.20   -1.46   0.000   0.143   0.000    0.00
   1.200   12.96    4.60   -1.59   0.000   0.143   0.000    0.00
   1.250   13.05    4.36   -1.49   0.000   0.143   0.000    0.00
   1.300   13.12    5.31   -1.54   0.000   0.143   0.000    0.00
   1.350   13.03    5.06   -1.38   0.000   0.143   0.000    0.00
   1.400   13.27    5.41   -1.52   0.000   0.143   0.000    0.00
   1.450   13.45    5.08   -1.78   0.000   0.143   0.000    0.00
   1.500   13.56    5.11   -1.72   0.000   0.143   0.000    0.00
   1.550   13.63    4.64   -1.51   0.000   0.143   0.000    0.00
   1.600   13.56    4.12   -1.74   0.000   0.143   0.000    0.00
   1.650   13.68    4.68   -1.70   0.000   0.143   0.000    0.00
   1.700   13.67    5.30   -1.71   0.000   0.143   0.000    0.00
   1.750   13.57    5.16   -1.20   0.000   0.143   0.000    0.00
   1.800   13.58    4.50   -1.21   0.000   0.143   0.000    0.00
   1.850   13.46    4.41   -1.46   0.000   0.143   0.000    0.00
   1.900   13.63    3.16   -1.35   0.000   0.143   0.000    0.00
   1.950   13.51    3.46   -1.51   0.000   0.143   0.000    0.00
   2.000   13.37    4.74   -1.62   0.000   0.143   0.000    0.00
   2.050   13.32    4.99   -1.21   0.000   0.143   0.000    0.00
   2.100   13.24    3.83   -1.37   0.000   0.143   0.000    0.00
   2.150   12.98    3.42   -1.33   0.000   0.143   0.000    0.00
   2.200   12.73    4.70   -1.47   0.000   0.143   0.000    0.00
   2.250   13.07    5.11   -1.18   0.000   0.143   0.000    0.00
   2.300   13.33    4.04   -1.20   0.000   0.143   0.000    0.00
   2.350   13.37    5.01   -1.30   0.000   0.143   0.000    0.00
   2.400   13.30    4.89   -1.53   0.000   0.143   0.000    0.00
   2.450   13.41    3.95   -1.78   0.000   0.143   0.000    0.00
   2.500   13.66    4.05   -1.91   0.000   0.143   0.000    0.00
   2.550   13.45    3.88   -1.89   0.000   0.143   0.000    0.00
   2.600   13.21    3.83   -2.20   0.000   0.143   0.000    0.00
   2.650   13.03    3.96   -2.28   0.000   0.143   0.000    0.00
   2.700   13.04    4.92   -1.99   0.000   0.143   0.000    0.00
   2.750   13.18    6.66   -1.97   0.000   0.143   0.000    0.00
   2.800   13.52    7.08   -1.96   0.000   0.143   0.000    0.00
   2.850   13.27    6.34   -1.73   0.000   0.143   0.000    0.00
   2.900   13.41    5.67   -1.72   0.000   0.143   0.000    0.00
   2.950   13.30    4.59   -1.55   0.000   0.143   0.000    0.00
   3.000   13.22    5.15   -1.59   0.000   0.143   0.000    0.00
   3.050   13.23    4.99   -1.59   0.000   0.143   0.000    0.00
   3.100   12.96    4.19   -1.41   0.000   0.143   0.000    0.00
   3.150   13.05    3.88   -1.20   0.000   0.143   0.000    0.00
   3.200   12.92    4.13   -1.02   0.000   0.143   0.000    0.00
   3.250   12.89    4.54   -0.90   0.000   0.143   0.000    0.00
   3.300   13.04    4.93   -1.16   0.000   0.143   0.000    0.00
   3.350   12.76    4.29   -1.13   0.000   0.143   0.000    0.00
   3.400   12.70    3.07   -1.21   0.000   0.143   0.000    0.00
   3.450   12.96    2.95   -1.13   0.000   0.143   0.000    0.00
   3.500   12.80    2.71   -1.15   0.000   0.143   0.000    0.00
   3.550   12.62    0.07   -1.19   0.000   0.143   0.000    0.00
   3.600   12.61    0.20   -1.24   0.000   0.143   0.000    0.00
   3.650   12.97    1.37   -1.19   0.000   0.143   0.000    0.00
   3.700   12.67    2.83   -1.21   0.000   0.143   0.000    0.00
   3.750   12.79    3.74   -1.28   0.000   0.143   0.000    0.00
   3.800   12.97    5.02   -1.41   0.000   0.143   0.000    0.00
   3.850   12.73    5.70   -1.39   0.000   0.143   0.000    0.00
   3.900   12.69    4.64   -1.38   0.000   0.143   0.000    0.00
   3.950   12.59    5.27   -1.52   0.000   0.143   0.000    0.00
   4.000   12.12    5.55   -1.52   0.000   0.143   0.000    0.00
   4.050   12.14    3.93   -1.74   0.000   0.143   0.000    0.00
   4.100   12.24    2.77   -1.93   0.000   0.143   0.000    0.00
   4.150   12.57    3.58   -2.03   0.000   0.143   0.000    0.00
   4.200   12.59    3.28   -2.13   0.000   0.143   0.000    0.00
   4.250   12.41    4.28   -2.20   0.000   0.143   0.000    0.00
   4.300   12.44    3.54   -1.94   0.000   0.143   0.000    0.00
   4.350   12.32    4.41   -1.75   0.000   0.143   0.000    0.00
   4.400   12.43    5.06   -1.55   0.000   0.143   0.000    0.00
   4.450   12.68    6.60   -1.45   0.000   0.143   0.000    0.00
   4.500   12.73    6.67   -1.40   0.000   0.143   0.000    0.00
   4.550   12.51    5.79   -1.29   0.000   0.143   0.000    0.00
   4.600   12.32    7.58   -1.29   0.000   0.143   0.000    0.00
   4.650   12.13    7.91   -1.06   0.000   0.143   0.000    0.00
   4.700   12.31    8.66   -1.02   0.000   0.143   0.000    0.00
   4.750   12.13    6.99   -0.87   0.000   0.143   0.000    0.00
   4.800   12.23    6.95   -1.01   0.000   0.143   0.000    0.00
   4.850   12.27    6.59   -0.87   0.000   0.143   0.000    0.00
   4.900   11.86    4.63   -0.65   0.000   0.143   0.000    0.00
   4.950   11.74    5.85   -0.72   0.000   0.143   0.000    0.00
   5.000   11.81    7.17   -0.65   0.000   0.143   0.000    0.00
   5.050   11.72    7.11   -0.96   0.000   0.143   0.000    0.00
   5.100   11.72    6.18   -0.93   0.000   0.143   0.000    0.00
   5.150   11.51    5.52   -1.05   0.000   0.143   0.000    0.00
   5.200   11.62    6.76   -1.07   0.000   0.143   0.000    0.00
   5.250   11.54    6.12   -1.08   0.000   0.143   0.000    0.00
   5.300   11.82    5.36   -1.16   0.000   0.143   0.000    0.00
   5.350   11.95    5.20   -1.08   0.000   0.143   0.000    0.00
   5.400   12.08    4.32   -1.14   0.000   0.143   0.000    0.00
   5.450   12.15    4.36   -1.31   0.000   0.143   0.000    0.00
   5.500   12.15    2.63   -1.32   0.000   0.143   0.000    0.00
   5.550   12.27    2.69   -1.57   0.000   0.143   0.000    0.00
   5.600   12.60    2.14   -1.70   0.000   0.143   0.000    0.00
   5.650   12.52    1.75   -1.85   0.000   0.143   0.000    0.00
   5.700   12.68    3.16   -1.60   0.000   0.143   0.000    0.00
   5.750   12.65    3.88   -1.34   0.000   0.143   0.000    0.00
   5.800   12.44    4.68   -1.62   0.000   0.143   0.000    0.00
   5.850   12.41    4.72   -1.59   0.000   0.143   0.000    0.00
   5.900   12.60    4.15   -1.72   0.000   0.143   0.000    0.00
   5.950   12.64    3.66   -1.33   0.000   0.143   0.000    0.00
   6.000   12.86    4.25   -1.33   0.000   0.143   0.000    0.00
   6.050   12.88    4.16   -1.34   0.000   0.143   0.000    0.00
   6.100   12.74    4.35   -1.30   0.000   0.143   0.000    0.00
   6.150   12.79    5.34   -1.36   0.000   0.143   0.000    0.00
   6.200   12.75    5.18   -1.45   0.000   0.143   0.000    0.00
   6.250   12.82    2.47   -1.40   0.000   0.143   0.000    0.00
   6.300   12.84    2.29   -1.43   0.000   0.143   0.000    0.00
   6.350   12.86    1.09   -1.41   0.000   0.143   0.000    0.00
   6.400   12.81    2.17   -1.34   0.000   0.143   0.000    0.00
   6.450   12.88    2.30   -1.22   0.000   0.143   0.000    0.00
   6.500   12.90    1.72   -1.26   0.000   0.143   0.000    0.00
   6.550   12.83    2.20   -1.39   0.000   0.143   0.000    0.00
   6.600   12.86    2.76   -1.44   0.000   0.143   0.000    0.00
   6.650   12.97    0.97   -1.33   0.000   0.143   0.000    0.00
   6.700   13.15    0.07   -1.22   0.000   0.143   0.000    0.00
   6.750   13.37   -0.51   -0.93   0.000   0.143   0.000    0.00
   6.800   13.12   -0.98   -0.77   0.000   0.143   0.000    0.00
   6.850   13.20   -1.67   -0.69   0.000   0.143   0.000    0.00
   6.900   12.87   -0.60   -0.87   0.000   0.143   0.000    0.00
   6.950   12.77   -1.15   -0.77   0.000   0.143   0.000    0.00
   7.000   12.79    0.28   -0.71   0.000   0.143   0.000    0.00
   7.050   12.84    1.77   -0.49   0.000   0.143   0.000    0.00
   7.100   12.87    0.33   -1.04   0.000   0.143   0.000    0.00
   7.150   12.71    0.16   -0.94   0.000   0.143   0.000    0.00
   7.200   12.67    0.58   -0.85   0.000   0.143   0.000    0.00
   7.250   12.72    2.21   -1.10   0.000   0.143   0.000    0.00
   7.300   12.70    3.55   -1.13   0.000   0.143   0.000    0.00
   7.350   12.47    2.89   -1.37   0.000   0.143   0.000    0.00
   7.400   12.77    4.26   -1.39   0.000   0.143   0.000    0.00
   7.450   12.90    3.54   -1.52   0.000   0.143   0.000    0.00
   7.500   12.97    1.94   -0.89   0.000   0.143   0.000    0.00
   7.550   13.26    2.06   -0.87   0.000   0.143   0.000    0.00
   7.600   13.22    2.80   -0.90   0.000   0.143   0.000    0.00
   7.650   13.17    2.17   -0.98   0.000   0.143   0.000    0.00
   7.700   13.01    3.14   -0.64   0.000   0.143   0.000    0.00
   7.750   13.13    3.40   -0.69   0.000   0.143   0.000    0.00
   7.800   12.99    2.44   -0.82   0.000   0.143   0.000    0.00
   7.850   13.00    2.35   -0.73   0.000   0.143   0.000    0.00
   7.900   13.03    1.91   -0.99   0.000   0.143   0.000    0.00
   7.950   12.73    2.70   -0.89   0.000   0.143   0.000    0.00
   8.000   12.69    3.95   -1.17   0.000   0.143   0.000    0.00
   8.050   12.83    4.64   -0.76   0.000   0.143   0.000    0.00
   8.100   12.87    4.02   -0.54   0.000   0.143   0.000    0.00
   8.150   12.71    3.47   -0.95   0.000   0.143   0.000    0.00
   8.200   12.50    4.37   -1.03   0.000   0.143   0.000    0.00
   8.250   12.51    5.38   -1.12   0.000   0.143   0.000    0.00
   8.300   12.56    5.76   -1.45   0.000   0.143   0.000    0.00
   8.350   12.55    5.23   -1.50   0.000   0.143   0.000    0.00
   8.400   12.54    4.22   -1.59   0.000   0.143   0.000    0.00
   8.450   12.53    4.33   -1.30   0.000   0.143   0.000    0.00
   8.500   12.88    5.48   -1.03   0.000   0.143   0.000    0.00
   8.550   13.00    5.51   -1.26   0.000   0.143   0.000    0.00
   8.600   12.86    4.94   -1.28   0.000   0.143   0.000    0.00
   8.650   12.92    5.11   -1.39   0.000   0.143   0.000    0.00
   8.700   12.75    4.80   -1.32   0.000   0.143   0.000    0.00
   8.750   13.03    5.04   -1.09   0.000   0.143   0.000    0.00
   8.800   12.81    5.33   -1.10   0.000   0.143   0.000    0.00
   8.850   12.59    5.64   -0.98   0.000   0.143   0.000    0.00
   8.900   12.48    3.95   -0.88   0.000   0.143   0.000    0.00
   8.950   12.35    3.56   -0.95   0.000   0.143   0.000    0.00
   9.000   12.39    2.09   -1.12   0.000   0.143   0.000    0.00
   9.050   12.67    1.70   -1.45   0.000   0.143   0.000    0.00
   9.100   12.74    2.71   -1.30   0.000   0.143   0.000    0.00
   9.150   12.70    2.60   -1.19   0.000   0.143   0.000    0.00
   9.200   12.78    1.75   -0.87   0.000   0.143   0.000    0.00
   9.250   12.91    2.70   -0.89   0.000   0.143   0.000    0.00
   9.300   12.85    2.54   -1.09   0.000   0.143   0.000    0.00
   9.350   12.70    2.31   -1.17   0.000   0.143   0.000    0.00
   9.400   12.72    3.13   -0.66   0.000   0.143   0.000    0.00
   9.450   12.76    3.39   -0.64   0.000   0.143   0.000    0.00
   9.500   12.89    4.61   -0.74   0.000   0.143   0.000    0.00
   9.550   12.58    3.92   -0.39   0.000   0.143   0.000    0.00
   9.600   12.65    2.24   -0.68   0.000   0.143   0.000    0.00
   9.650   12.63    3.82   -1.09   0.000   0.143   0.000    0.00
   9.700   12.63    3.86   -0.96   0.000   0.143   0.000    0.00
   9.750   12.62    2.98   -1.17   0.000   0.143   0.000    0.00
   9.800   12.44    2.89   -1.03   0.000   0.143   0.000    0.00
   9.850   12.56    2.78   -1.03   0.000   0.143   0.000    0.00
   9.900   12.59    2.61   -1.52   0.000   0.143   0.000    0.00
   9.950   12.53    1.61   -1.53   0.000   0.143   0.000    0.00
  10.000   12.61    1.04   -1.52   0.000   0.143   0.000    0.00
  10.050   12.72    1.60   -1.47   0.000   0.143   0.000    0.00
  10.100   12.88    2.18   -1.74   0.000   0.143   0.000    0.00
  10.150   12.95    2.66   -1.63   0.000   0.143   0.000    0.00
  10.200   12.65    2.85   -1.20   0.000   0.143   0.000    0.00
  10.250   12.69    2.93   -1.52   0.000   0.143   0.000    0.00
  10.300   12.78    2.96   -1.71   0.000   0.143   0.000    0.00
  10.350   12.54    4.55   -1.53   0.000   0.143   0.000    0.00
  10.400   12.21    5.23   -1.66   0.000   0.143   0.000    0.00
  10.450   12.24    5.59   -1.52   0.000   0.143   0.000    0.00
  10.500   12.41    5.14   -1.57   0.000   0.143   0.000    0.00
  10.550   12.63    4.82   -1.35   0.000   0.143   0.000    0.00
  10.600   12.68    4.29   -1.33   0.000   0.143   0.000    0.00
  10.650   12.83    5.47   -1.38   0.000   0.143   0.000    0.00
  10.700   12.93    6.21   -1.18   0.000   0.143   0.000    0.00
  10.750   12.88    6.31   -1.06   0.000   0.143   0.000    0.00
  10.800   12.65    5.46   -0.91   0.000   0.143   0.000    0.00
  10.850   12.51    5.27   -0.86   0.000   0.143   0.000    0.00
  10.900   12.52    4.91   -0.83   0.000   0.143   0.000    0.00
  10.950   12.47    4.25   -0.69   0.000   0.143   0.000    0.00
  11.000   12.36    4.20   -0.81   0.000   0.143   0.000    0.00
  11.050   12.36    3.35   -0.59   0.000   0.143   0.000    0.00
  11.100   12.10    4.02   -0.64   0.000   0.143   0.000    0.00
  11.150   12.31    3.34   -0.81   0.000   0.143   0.000    0.00
  11.200   12.33    2.44   -0.90   0.000   0.143   0.000    0.00
  11.250   12.20    1.97   -0.79   0.000   0.143   0.000    0.00
  11.300   11.98    1.18   -0.66   0.000   0.143   0.000    0.00
  11.350   12.14    0.89   -0.75   0.000   0.143   0.000    0.00
  11.400   11.91   -0.97   -0.78   0.000   0.143   0.000    0.00
  11.450   11.97   -2.44   -0.87   0.000   0.143   0.000    0.00
  11.500   11.85   -1.64   -0.80   0.000   0.143   0.000    0.00
  11.550   12.15   -0.20   -1.05   0.000   0.143   0.000    0.00
  11.600   12.43   -1.12   -0.82   0.000   0.143   0.000    0.00
  11.650   12.40    0.26   -0.79   0.000   0.143   0.000    0.00
  11.700   12.10    0.19   -0.66   0.000   0.143   0.000    0.00
  11.750   12.02    2.12   -0.39   0.000   0.143   0.000    0.00
  11.800   11.85    3.41   -0.47   0.000   0.143   0.000    0.00
  11.850   11.81    1.79   -0.19   0.000   0.143   0.000    0.00
  11.900   12.24    0.02   -0.24   0.000   0.143   0.000    0.00
  11.950   12.39   -0.80   -0.25   0.000   0.143   0.000    0.00
  12.000   12.35    0.49   -0.47   0.000   0.143   0.000    0.00
  12.050   12.06    1.15   -0.33   0.000   0.143   0.000    0.00
  12.100   12.11    0.84   -0.49   0.000   0.143   0.000    0.00
  12.150   12.30    0.61   -0.81   0.000   0.143   0.000    0.00
  12.200   12.42    1.30   -0.74   0.000   0.143   0.000    0.00
  12.250   12.38    0.51   -1.11   0.000   0.143   0.000    0.00
  12.300   12.44   -0.13   -1.29   0.000   0.143   0.000    0.00
  12.350   12.39   -0.36   -1.33   0.000   0.143   0.000    0.00
  12.400   12.24    0.07   -1.17   0.000   0.143   0.000    0.00
  12.450   12.19   -0.15   -1.08   0.000   0.143   0.000    0.00
  12.500   12.23    0.35   -0.92   0.000   0.143   0.000    0.00
  12.550   12.30    1.50   -1.05   0.000   0.143   0.000    0.00
  12.600   12.12    2.31   -0.80   0.000   0.143   0.000    0.00
  12.650   12.03    0.35   -1.28   0.000   0.143   0.000    0.00
  12.700   11.92    0.56   -1.45   0.000   0.143   0.000    0.00
  12.750   11.72    2.13   -1.58   0.000   0.143   0.000    0.00
  12.800   11.74    1.26   -1.41   0.000   0.143   0.000    0.00
  12.850   11.88    1.48   -1.56   0.000   0.143   0.000    0.00
  12.900   11.95    1.46   -1.61   0.000   0.143   0.000    0.00
  12.950   12.14    0.01   -1.55   0.000   0.143   0.000    0.00
  13.000   12.38   -0.96   -1.43   0.000   0.143   0.000    0.00
  13.050   12.67    0.51   -1.42   0.000   0.143   0.000    0.00
  13.100   12.75    0.52   -1.31   0.000   0.143   0.000    0.00
  13.150   12.61   -0.97   -1.35   0.000   0.143   0.000    0.00
  13.200   12.37   -1.79   -1.21   0.000   0.143   0.000    0.00
  13.250   12.38   -2.55   -1.11   0.000   0.143   0.000    0.00
  13.300   12.48   -1.29   -0.91   0.000   0.143   0.000    0.00
  13.350   12.26   -2.68   -0.70   0.000   0.143   0.000    0.00
  13.400   12.22   -1.67   -0.58   0.000   0.143   0.000    0.00
  13.450   12.63   -0.12   -0.73   0.000   0.143   0.000    0.00
  13.500   12.55    0.78   -0.91   0.000   0.143   0.000    0.00
  13.550   12.27    0.06   -0.69   0.000   0.143   0.000    0.00
  13.600   12.15    0.84   -0.47   0.000   0.143   0.000    0.00
  13.650   12.31    0.82   -0.51   0.000   0.143   0.000    0.00
  13.700   12.46    2.51   -0.20   0.000   0.143   0.000    0.00
  13.750   12.36    2.26   -0.23   0.000   0.143   0.000    0.00
  13.800   12.40    3.10   -0.03   0.000   0.143   0.000    0.00
  13.850   12.36    4.04   -0.15   0.000   0.143   0.000    0.00
  13.900   12.42    3.65   -0.35   0.000   0.143   0.000    0.00
  13.950   12.40    3.89   -0.52   0.000   0.143   0.000    0.00
  14.000   12.30    3.70   -0.07   0.000   0.143   0.000    0.00
  14.050   12.32    3.51    0.21   0.000   0.143   0.000    0.00
  14.100   12.47    3.50   -0.16   0.000   0.143   0.000    0.00
  14.150   12.25    3.69   -0.15   0.000   0.143   0.000    0.00
  14.200   12.50    4.23   -0.20   0.000   0.143   0.000    0.00
  14.250   12.31    5.34    0.05   0.000   0.143   0.000    0.00
  14.300   12.57    5.17   -0.19   0.000   0.143   0.000    0.00
  14.350   12.49    4.67   -0.25   0.000   0.143   0.000    0.00
  14.400   12.23    4.85   -0.15   0.000   0.143   0.000    0.00
  14.450   11.87    4.03   -0.21   0.000   0.143   0.000    0.00
  14.500   12.03    2.22   -0.08   0.000   0.143   0.000    0.00
  14.550   12.11    0.73   -0.05   0.000   0.143   0.000    0.00
  14.600   12.49    0.27   -0.07   0.000   0.143   0.000    0.00
  14.650   12.26    2.53   -0.17   0.000   0.143   0.000    0.00
  14.700   12.12    3.14   -0.30   0.000   0.143   0.000    0.00
  14.750   12.17    3.63   -0.16   0.000   0.143   0.000    0.00
  14.800   12.17    4.14    0.16   0.000   0.143   0.000    0.00
  14.850   11.86    3.70    0.40   0.000   0.143   0.000    0.00
  14.900   11.83    3.74    0.45   0.000   0.143   0.000    0.00
  14.950   11.69    2.87    0.33   0.000   0.143   0.000    0.00
  15.000   11.71    2.63    0.29   0.000   0.143   0.000    0.00
  15.050   11.48    4.14    0.15   0.000   0.143   0.000    0.00
  15.100   11.60    3.49   -0.14   0.000   0.143   0.000    0.00
  15.150   11.58    4.42   -0.07   0.000   0.143   0.000    0.00
  15.200   11.65    3.62    0.00   0.000   0.143   0.000    0.00
  15.250   11.66    3.62   -0.08   0.000   0.143   0.000    0.00
  15.300   11.57    4.17    0.18   0.000   0.143   0.000    0.00
  15.350   11.40    4.35    0.42   0.000   0.143   0.000    0.00
  15.400   11.36    4.25    0.61   0.000   0.143   0.000    0.00
  15.450   11.04    5.35    0.73   0.000   0.143   0.000    0.00
  15.500   10.87    5.47    0.97   0.000   0.143   0.000    0.00
  15.550   10.87    4.53    1.34   0.000   0.143   0.000    0.00
  15.600   11.02    5.26    1.34   0.000   0.143   0.000    0.00
  15.650   11.21    6.00    1.35   0.000   0.143   0.000    0.00
  15.700   11.18    5.40    1.36   0.000   0.143   0.000    0.00
  15.750   11.53    4.50    1.39   0.000   0.143   0.000    0.00
  15.800   11.46    4.51    1.32   0.000   0.143   0.000    0.00
  15.850   11.46    4.33    1.42   0.000   0.143   0.000    0.00
  15.900   11.41    4.05    1.47   0.000   0.143   0.000    0.00
  15.950   11.29    3.54    1.42   0.000   0.143   0.000    0.00
  16.000   11.13    3.34    1.60   0.000   0.143   0.000    0.00
  16.050   11.10    1.18    1.64   0.000   0.143   0.000    0.00
  16.100   11.20    3.59    1.64   0.000   0.143   0.000    0.00
  16.150   11.25    2.99    1.13   0.000   0.143   0.000    0.00
  16.200   11.33    2.94    1.35   0.000   0.143   0.000    0.00
  16.250   11.41    3.27    1.48   0.000   0.143   0.000    0.00
  16.300   11.37    2.30    1.28   0.000   0.143   0.000    0.00
  16.350   11.19    3.04    1.46   0.000   0.143   0.000    0.00
  16.400   11.14    5.26    1.46   0.000   0.143   0.000    0.00
  16.450   11.38    2.96    1.21   0.000   0.143   0.000    0.00
  16.500   11.49    2.97    1.16   0.000   0.143   0.000    0.00
  16.550   11.40    4.26    1.44   0.000   0.143   0.000    0.00
  16.600   11.51    4.55    1.27   0.000   0.143   0.000    0.00
  16.650   11.25    5.10    1.24   0.000   0.143   0.000    0.00
  16.700   11.42    5.74    1.22   0.000   0.143   0.000    0.00
  16.750   11.57    5.53    0.88   0.000   0.143   0.000    0.00
  16.800   11.69    5.19    0.88   0.000   0.143   0.000    0.00
  16.850   11.59    5.20    0.57   0.000   0.143   0.000    0.00
  16.900   11.57    4.32    0.39   0.000   0.143   0.000    0.00
  16.950   11.72    4.45    0.12   0.000   0.143   0.000    0.00
  17.000   11.66    4.83   -0.43   0.000   0.143   0.000    0.00
  17.050   11.77    6.57   -0.65   0.000   0.143   0.000    0.00
  17.100   11.89    7.64   -0.25   0.000   0.143   0.000    0.00
  17.150   11.81    7.52    0.33   0.000   0.143   0.000    0.00
  17.200   11.65    6.32    0.26   0.000   0.143   0.000    0.00
  17.250   11.62    7.37    0.12   0.000   0.143   0.000    0.00
  17.300   11.58    7.35    0.14   0.000   0.143   0.000    0.00
  17.350   11.74    8.12   -0.07   0.000   0.143   0.000    0.00
  17.400   11.70    8.45   -0.21   0.000   0.143   0.000    0.00
  17.450   11.67    9.30   -0.21   0.000   0.143   0.000    0.00
  17.500   11.85    9.47   -0.10   0.000   0.143   0.000    0.00
  17.550   11.74    9.41    0.02   0.000   0.143   0.000    0.00
  17.600   11.71    8.83   -0.25   0.000   0.143   0.000    0.00
  17.650   11.52    9.37   -0.35   0.000   0.143   0.000    0.00
  17.700   11.58    8.19   -0.29   0.000   0.143   0.000    0.00
  17.750   11.45    7.97   -0.28   0.000   0.143   0.000    0.00
  17.800   11.18    8.44   -0.40   0.000   0.143   0.000    0.00
  17.850   11.39    8.30   -0.17   0.000   0.143   0.000    0.00
  17.900   11.37    7.92   -0.20   0.000   0.143   0.000    0.00
  17.950   11.03    8.51    0.10   0.000   0.143   0.000    0.00
  18.000   10.98    5.78    0.02   0.000   0.143   0.000    0.00
  18.050   10.89    4.20   -0.09   0.000   0.143   0.000    0.00
  18.100   10.97    3.70   -0.18   0.000   0.143   0.000    0.00
  18.150   11.01    3.83    0.24   0.000   0.143   0.000    0.00
  18.200   11.12    3.36    0.14   0.000   0.143   0.000    0.00
  18.250   11.04    3.06    0.06   0.000   0.143   0.000    0.00
  18.300   11.12    3.64   -0.04   0.000   0.143   0.000    0.00
  18.350   11.08    4.38    0.09   0.000   0.143   0.000    0.00
  18.400   11.10    5.22   -0.05   0.000   0.143   0.000    0.00
  18.450   11.00    3.46   -0.21   0.000   0.143   0.000    0.00
  18.500   11.08    3.14   -0.05   0.000   0.143   0.000    0.00
  18.550   11.22    2.63   -0.27   0.000   0.143   0.000    0.00
  18.600   11.48    1.79   -0.44   0.000   0.143   0.000    0.00
  18.650   11.65    2.15   -0.41   0.000   0.143   0.000    0.00
  18.700   11.49    1.99   -0.46   0.000   0.143   0.000    0.00
  18.750   11.42   -0.80    0.11   0.000   0.143   0.000    0.00
  18.800   11.21   -1.96   -0.19   0.000   0.143   0.000    0.00
  18.850   11.08    0.73   -0.20   0.000   0.143   0.000    0.00
  18.900   10.96   -0.39    0.03   0.000   0.143   0.000    0.00
  18.950   11.22    0.96    0.21   0.000   0.143   0.000    0.00
  19.000   11.44    1.18    0.13   0.000   0.143   0.000    0.00
  19.050   11.12    1.59    0.13   0.000   0.143   0.000    0.00
  19.100   11.02    1.94    0.19   0.000   0.143   0.000    0.00
  19.150   11.29    2.40    0.13   0.000   0.143   0.000    0.00
  19.200   11.48    2.18    0.18   0.000   0.143   0.000    0.00
  19.250   11.89    2.64    0.24   0.000   0.143   0.000    0.00
  19.300   11.58    2.29    0.07   0.000   0.143   0.000    0.00
  19.350   11.38    1.86    0.24   0.000   0.143   0.000    0.00
  19.400   11.45    1.27    0.44   0.000   0.143   0.000    0.00
  19.450   11.46    0.87    0.19   0.000   0.143   0.000    0.00
  19.500   11.40    2.43    0.10   0.000   0.143   0.000    0.00
  19.550   11.44    2.30   -0.13   0.000   0.143   0.000    0.00
  19.600   11.28    3.49    0.12   0.000   0.143   0.000    0.00
  19.650   11.39    3.32    0.04   0.000   0.143   0.000    0.00
  19.700   11.41    3.01   -0.19   0.000   0.143   0.000    0.00
  19.750   11.54    2.72   -0.17   0.000   0.143   0.000    0.00
  19.800   11.46    3.54   -0.01   0.000   0.143   0.000    0.00
  19.850   11.17    4.67    0.08   0.000   0.143   0.000    0.00
  19.900   11.18    5.15   -0.01   0.000   0.143   0.000    0.00
  19.950   11.45    5.37   -0.14   0.000   0.143   0.000    0.00
  20.000   11.18    4.00   -0.25   0.000   0.143   0.000    0.00
  20.050   11.29    3.66   -0.34   0.000   0.143   0.000    0.00
  20.100   11.39    2.89   -0.24   0.000   0.143   0.000    0.00
  20.150   11.41    3.36   -0.30   0.000   0.143   0.000    0.00
  20.200   11.32    3.18   -0.27   0.000   0.143   0.000    0.00
  20.250   11.46    3.74   -0.24   0.000   0.143   0.000    0.00
  20.300   11.38    2.64   -0.04   0.000   0.143   0.000    0.00
  20.350   11.61    2.72    0.05   0.000   0.143   0.000    0.00
  20.400   11.68    3.24    0.02   0.000   0.143   0.000    0.00
  20.450   11.61    3.22   -0.11   0.000   0.143   0.000    0.00
  20.500   11.62    2.53   -0.01   0.000   0.143   0.000    0.00
  20.550   11.62    2.90   -0.13   0.000   0.143   0.000    0.00
  20.600   11.64    2.28    0.10   0.000   0.143   0.000    0.00
  20.650   11.61    2.70    0.17   0.000   0.143   0.000    0.00
  20.700   11.44    3.52    0.14   0.000   0.143   0.000    0.00
  20.750   11.63    4.16    0.39   0.000   0.143   0.000    0.00
  20.800   11.90    3.55    0.63   0.000   0.143   0.000    0.00
  20.850   12.36    2.85    0.52   0.000   0.143   0.000    0.00
  20.900   12.25    3.28    0.56   0.000   0.143   0.000    0.00
  20.950   11.75    4.26    0.66   0.000   0.143   0.000    0.00
  21.000   11.70    5.41    0.67   0.000   0.143   0.000    0.00
  21.050   11.73    3.98    0.59   0.000   0.143   0.000    0.00
  21.100   11.64    3.25    0.52   0.000   0.143   0.000    0.00
  21.150   11.79    3.81    0.54   0.000   0.143   0.000    0.00
  21.200   11.82    3.81    0.68   0.000   0.143   0.000    0.00
  21.250   11.92    5.06    0.77   0.000   0.143   0.000    0.00
  21.300   11.76    6.01    0.83   0.000   0.143   0.000    0.00
  21.350   11.81    4.42    0.85   0.000   0.143   0.000    0.00
  21.400   11.70    5.07    0.89   0.000   0.143   0.000    0.00
  21.450   11.70    5.57    0.64   0.000   0.143   0.000    0.00
  21.500   11.72    5.93    0.51   0.000   0.143   0.000    0.00
  21.550   11.90    5.54    1.01   0.000   0.143   0.000    0.00
  21.600   12.12    5.26    1.05   0.000   0.143   0.000    0.00
  21.650   11.88    5.66    0.88   0.000   0.143   0.000    0.00
  21.700   11.92    5.53    0.82   0.000   0.143   0.000    0.00
  21.750   11.81    5.19    1.07   0.000   0.143   0.000    0.00
  21.800   11.77    5.80    0.96   0.000   0.143   0.000    0.00
  21.850   11.89    5.80    1.09   0.000   0.143   0.000    0.00
  21.900   11.78    6.90    1.05   0.000   0.143   0.000    0.00
  21.950   11.64    5.97    1.19   0.000   0.143   0.000    0.00
  22.000   11.81    5.82    0.88   0.000   0.143   0.000    0.00
  22.050   11.89    5.91    0.95   0.000   0.143   0.000    0.00
  22.100   11.68    6.58    0.95   0.000   0.143   0.000    0.00
  22.150   11.56    7.35    0.44   0.000   0.143   0.000    0.00
  22.200   11.56    8.09    0.32   0.000   0.143   0.000    0.00
  22.250   11.44    8.66    0.47   0.000   0.143   0.000    0.00
  22.300   11.15    8.03    0.25   0.000   0.143   0.000    0.00
  22.350   10.89    8.74    0.07   0.000   0.143   0.000    0.00
  22.400   10.92    7.01    0.12   0.000   0.143   0.000    0.00
  22.450   10.84    6.83   -0.10   0.000   0.143   0.000    0.00
  22.500   10.81    6.31    0.05   0.000   0.143   0.000    0.00
  22.550   10.90    5.53    0.17   0.000   0.143   0.000    0.00
  22.600   10.88    5.25    0.12   0.000   0.143   0.000    0.00
  22.650   10.85    4.27   -0.16   0.000   0.143   0.000    0.00
  22.700   10.85    2.42    0.13   0.000   0.143   0.000    0.00
  22.750   10.70    2.11   -0.11   0.000   0.143   0.000    0.00