! This hub-height wind-speed file was generated by TurbSim (v1.06.00, 21-Sep-2012) on 07-Dec-2015 at 15:31:42.
!
! The requested statistics for this data were:
!    Mean Total Wind Speed =   22.000 m/s
!
!   Time  HorSpd  WndDir  VerSpd  HorShr  VerShr  LnVShr  GstSpd
!  (sec)   (m/s)   (deg)   (m/s)     (-)     (-)     (-)   (m/s)
   0.000   29.68    2.02   -2.90   0.000   0.143   0.000    0.00
   0.050   29.30    1.10   -2.47   0.000   0.143   0.000    0.00
   0.100   28.80    0.79   -2.39   0.000   0.143   0.000    0.00
   0.150   29.96    2.61   -1.97   0.000   0.143   0.000    0.00
   0.200   29.86    2.56   -1.78   0.000   0.143   0.000    0.00
   0.250   29.60    3.39   -1.58   0.000   0.143   0.000    0.00
   0.300   29.08    3.10   -1.09   0.000   0.143   0.000    0.00
   0.350   29.05    2.65   -1.34   0.000   0.143   0.000    0.00
   0.400   29.19    1.88   -0.81   0.000   0.143   0.000    0.00
   0.450   29.53    2.71   -0.78   0.000   0.143   0.000    0.00
   0.500   28.99    2.85   -1.11   0.000   0.143   0.000    0.00
   0.550   28.45    1.49   -1.33   0.000   0.143   0.000    0.00
   0.600   28.61    0.57   -1.22   0.000   0.143   0.000    0.00
   0.650   28.80   -0.53   -1.33   0.000   0.143   0.000    0.00
   0.700   28.78    0.23   -1.70   0.000   0.143   0.000    0.00
   0.750   28.84    0.87   -1.17   0.000   0.143   0.000    0.00
   0.800   28.99    0.92   -0.33   0.000   0.143   0.000    0.00
   0.850   28.70    0.96   -1.44   0.000   0.143   0.000    0.00
   0.900   29.10    0.84   -2.66   0.000   0.143   0.000    0.00
   0.950   29.29    1.13   -3.12   0.000   0.143   0.000    0.00
   1.000   28.38    0.34   -3.53   0.000   0.143   0.000    0.00
   1.050   27.72    1.98   -3.47   0.000   0.143   0.000    0.00
   1.100   27.63    1.57   -3.25   0.000   0.143   0.000    0.00
   1.150   27.46    3.26   -2.71   0.000   0.143   0.000    0.00
   1.200   26.52    3.75   -3.04   0.000   0.143   0.000    0.00
   1.250   26.76    3.44   -2.75   0.000   0.143   0.000    0.00
   1.300   26.93    4.68   -2.90   0.000   0.143   0.000    0.00
   1.350   26.69    4.35   -2.46   0.000   0.143   0.000    0.00
   1.400   27.32    4.82   -2.82   0.000   0.143   0.000    0.00
   1.450   27.83    4.40   -3.53   0.000   0.143   0.000    0.00
   1.500   28.12    4.45   -3.36   0.000   0.143   0.000    0.00
   1.550   28.31    3.84   -2.81   0.000   0.143   0.000    0.00
   1.600   28.12    3.16   -3.42   0.000   0.143   0.000    0.00
   1.650   28.46    3.89   -3.31   0.000   0.143   0.000    0.00
   1.700   28.43    4.70   -3.32   0.000   0.143   0.000    0.00
   1.750   28.15    4.50   -1.95   0.000   0.143   0.000    0.00
   1.800   28.17    3.66   -1.98   0.000   0.143   0.000    0.00
   1.850   27.87    3.53   -2.64   0.000   0.143   0.000    0.00
   1.900   28.34    1.93   -2.34   0.000   0.143   0.000    0.00
   1.950   28.02    2.30   -2.75   0.000   0.143   0.000    0.00
   2.000   27.61    3.95   -3.03   0.000   0.143   0.000    0.00
   2.050   27.48    4.27   -1.93   0.000   0.143   0.000    0.00
   2.100   27.28    2.76   -2.36   0.000   0.143   0.000    0.00
   2.150   26.59    2.19   -2.24   0.000   0.143   0.000    0.00
   2.200   25.91    3.84   -2.58   0.000   0.143   0.000    0.00
   2.250   26.83    4.41   -1.81   0.000   0.143   0.000    0.00
   2.300   27.52    3.04   -1.89   0.000   0.143   0.000    0.00
   2.350   27.63    4.30   -2.15   0.000   0.143   0.000    0.00
   2.400   27.45    4.15   -2.77   0.000   0.143   0.000    0.00
   2.450   27.74    2.94   -3.42   0.000   0.143   0.000    0.00
   2.500   28.41    3.09   -3.78   0.000   0.143   0.000    0.00
   2.550   27.86    2.85   -3.73   0.000   0.143   0.000    0.00
   2.600   27.20    2.76   -4.52   0.000   0.143   0.000    0.00
   2.650   26.72    2.91   -4.73   0.000   0.143   0.000    0.00
   2.700   26.74    4.17   -3.94   0.000   0.143   0.000    0.00
   2.750   27.12    6.44   -3.90   0.000   0.143   0.000    0.00
   2.800   28.04    6.99   -3.90   0.000   0.143   0.000    0.00
   2.850   27.37    6.03   -3.26   0.000   0.143   0.000    0.00
   2.900   27.75    5.18   -3.24   0.000   0.143   0.000    0.00
   2.950   27.46    3.76   -2.79   0.000   0.143   0.000    0.00
   3.000   27.25    4.49   -2.89   0.000   0.143   0.000    0.00
   3.050   27.27    4.29   -2.90   0.000   0.143   0.000    0.00
   3.100   26.56    3.23   -2.41   0.000   0.143   0.000    0.00
   3.150   26.79    2.83   -1.86   0.000   0.143   0.000    0.00
   3.200   26.44    3.14   -1.36   0.000   0.143   0.000    0.00
   3.250   26.36    3.68   -1.03   0.000   0.143   0.000    0.00
   3.300   26.76    4.20   -1.76   0.000   0.143   0.000    0.00
   3.350   26.01    3.35   -1.66   0.000   0.143   0.000    0.00
   3.400   25.87    1.75   -1.85   0.000   0.143   0.000    0.00
   3.450   26.58    1.63   -1.66   0.000   0.143   0.000    0.00
   3.500   26.14    1.29   -1.72   0.000   0.143   0.000    0.00
   3.550   25.73   -2.21   -1.81   0.000   0.143   0.000    0.00
   3.600   25.70   -2.04   -1.93   0.000   0.143   0.000    0.00
   3.650   26.64   -0.43   -1.82   0.000   0.143   0.000    0.00
   3.700   25.80    1.43   -1.86   0.000   0.143   0.000    0.00
   3.750   26.12    2.64   -2.05   0.000   0.143   0.000    0.00
   3.800   26.59    4.35   -2.40   0.000   0.143   0.000    0.00
   3.850   25.95    5.22   -2.33   0.000   0.143   0.000    0.00
   3.900   25.85    3.82   -2.31   0.000   0.143   0.000    0.00
   3.950   25.57    4.64   -2.67   0.000   0.143   0.000    0.00
   4.000   24.31    4.99   -2.65   0.000   0.143   0.000    0.00
   4.050   24.38    2.83   -3.22   0.000   0.143   0.000    0.00
   4.100   24.68    1.30   -3.74   0.000   0.143   0.000    0.00
   4.150   25.54    2.42   -4.04   0.000   0.143   0.000    0.00
   4.200   25.59    2.02   -4.30   0.000   0.143   0.000    0.00
   4.250   25.11    3.33   -4.49   0.000   0.143   0.000    0.00
   4.300   25.20    2.36   -3.80   0.000   0.143   0.000    0.00
   4.350   24.86    3.50   -3.28   0.000   0.143   0.000    0.00
   4.400   25.15    4.37   -2.75   0.000   0.143   0.000    0.00
   4.450   25.82    6.41   -2.50   0.000   0.143   0.000    0.00
   4.500   25.97    6.51   -2.38   0.000   0.143   0.000    0.00
   4.550   25.37    5.34   -2.08   0.000   0.143   0.000    0.00
   4.600   24.86    7.70   -2.09   0.000   0.143   0.000    0.00
   4.650   24.37    8.16   -1.45   0.000   0.143   0.000    0.00
   4.700   24.84    9.14   -1.35   0.000   0.143   0.000    0.00
   4.750   24.36    6.94   -0.96   0.000   0.143   0.000    0.00
   4.800   24.63    6.89   -1.33   0.000   0.143   0.000    0.00
   4.850   24.74    6.41   -0.97   0.000   0.143   0.000    0.00
   4.900   23.65    3.77   -0.36   0.000   0.143   0.000    0.00
   4.950   23.33    5.41   -0.55   0.000   0.143   0.000    0.00
   5.000   23.50    7.20   -0.37   0.000   0.143   0.000    0.00
   5.050   23.25    7.12   -1.19   0.000   0.143   0.000    0.00
   5.100   23.27    5.88   -1.11   0.000   0.143   0.000    0.00
   5.150   22.71    4.97   -1.44   0.000   0.143   0.000    0.00
   5.200   22.99    6.67   -1.48   0.000   0.143   0.000    0.00
   5.250   22.78    5.81   -1.51   0.000   0.143   0.000    0.00
   5.300   23.54    4.80   -1.75   0.000   0.143   0.000    0.00
   5.350   23.91    4.61   -1.54   0.000   0.143   0.000    0.00
   5.400   24.26    3.44   -1.70   0.000   0.143   0.000    0.00
   5.450   24.44    3.52   -2.15   0.000   0.143   0.000    0.00
   5.500   24.47    1.22   -2.18   0.000   0.143   0.000    0.00
   5.550   24.78    1.33   -2.86   0.000   0.143   0.000    0.00
   5.600   25.69    0.66   -3.23   0.000   0.143   0.000    0.00
   5.650   25.47    0.13   -3.64   0.000   0.143   0.000    0.00
   5.700   25.89    2.02   -2.98   0.000   0.143   0.000    0.00
   5.750   25.80    2.97   -2.28   0.000   0.143   0.000    0.00
   5.800   25.22    4.02   -3.01   0.000   0.143   0.000    0.00
   5.850   25.15    4.07   -2.93   0.000   0.143   0.000    0.00
   5.900   25.65    3.33   -3.31   0.000   0.143   0.000    0.00
   5.950   25.76    2.71   -2.25   0.000   0.143   0.000    0.00
   6.000   26.35    3.50   -2.27   0.000   0.143   0.000    0.00
   6.050   26.42    3.40   -2.32   0.000   0.143   0.000    0.00
   6.100   26.04    3.64   -2.20   0.000   0.143   0.000    0.00
   6.150   26.17    4.95   -2.38   0.000   0.143   0.000    0.00
   6.200   26.07    4.74   -2.62   0.000   0.143   0.000    0.00
   6.250   26.28    1.22   -2.50   0.000   0.143   0.000    0.00
   6.300   26.34    0.99   -2.57   0.000   0.143   0.000    0.00
   6.350   26.39   -0.57   -2.54   0.000   0.143   0.000    0.00
   6.400   26.26    0.85   -2.35   0.000   0.143   0.000    0.00
   6.450   26.44    1.03   -2.03   0.000   0.143   0.000    0.00
   6.500   26.50    0.28   -2.16   0.000   0.143   0.000    0.00
   6.550   26.30    0.90   -2.50   0.000   0.143   0.000    0.00
   6.600   26.38    1.65   -2.65   0.000   0.143   0.000    0.00
   6.650   26.70   -0.67   -2.35   0.000   0.143   0.000    0.00
   6.700   27.20   -1.80   -2.09   0.000   0.143   0.000    0.00
   6.750   27.82   -2.50   -1.33   0.000   0.143   0.000    0.00
   6.800   27.15   -3.16   -0.89   0.000   0.143   0.000    0.00
   6.850   27.39   -4.02   -0.68   0.000   0.143   0.000    0.00
   6.900   26.47   -2.70   -1.15   0.000   0.143   0.000    0.00
   6.950   26.21   -3.43   -0.88   0.000   0.143   0.000    0.00
   7.000   26.24   -1.57   -0.75   0.000   0.143   0.000    0.00
   7.050   26.37    0.39   -0.16   0.000   0.143   0.000    0.00
   7.100   26.46   -1.48   -1.62   0.000   0.143   0.000    0.00
   7.150   26.02   -1.74   -1.35   0.000   0.143   0.000    0.00
   7.200   25.91   -1.20   -1.11   0.000   0.143   0.000    0.00
   7.250   26.04    0.95   -1.78   0.000   0.143   0.000    0.00
   7.300   25.97    2.71   -1.87   0.000   0.143   0.000    0.00
   7.350   25.36    1.82   -2.51   0.000   0.143   0.000    0.00
   7.400   26.15    3.65   -2.58   0.000   0.143   0.000    0.00
   7.450   26.51    2.71   -2.94   0.000   0.143   0.000    0.00
   7.500   26.72    0.63   -1.25   0.000   0.143   0.000    0.00
   7.550   27.48    0.83   -1.22   0.000   0.143   0.000    0.00
   7.600   27.37    1.78   -1.31   0.000   0.143   0.000    0.00
   7.650   27.26    0.95   -1.52   0.000   0.143   0.000    0.00
   7.700   26.80    2.21   -0.62   0.000   0.143   0.000    0.00
   7.750   27.14    2.54   -0.74   0.000   0.143   0.000    0.00
   7.800   26.77    1.29   -1.11   0.000   0.143   0.000    0.00
   7.850   26.79    1.17   -0.86   0.000   0.143   0.000    0.00
   7.900   26.88    0.60   -1.56   0.000   0.143   0.000    0.00
   7.950   26.07    1.59   -1.26   0.000   0.143   0.000    0.00
   8.000   25.94    3.22   -2.02   0.000   0.143   0.000    0.00
   8.050   26.33    4.14   -0.94   0.000   0.143   0.000    0.00
   8.100   26.45    3.34   -0.35   0.000   0.143   0.000    0.00
   8.150   26.01    2.60   -1.44   0.000   0.143   0.000    0.00
   8.200   25.44    3.77   -1.63   0.000   0.143   0.000    0.00
   8.250   25.48    5.10   -1.87   0.000   0.143   0.000    0.00
   8.300   25.61    5.60   -2.76   0.000   0.143   0.000    0.00
   8.350   25.58    4.90   -2.88   0.000   0.143   0.000    0.00
   8.400   25.55    3.57   -3.14   0.000   0.143   0.000    0.00
   8.450   25.54    3.72   -2.37   0.000   0.143   0.000    0.00
   8.500   26.47    5.24   -1.67   0.000   0.143   0.000    0.00
   8.550   26.80    5.28   -2.29   0.000   0.143   0.000    0.00
   8.600   26.42    4.54   -2.33   0.000   0.143   0.000    0.00
   8.650   26.58    4.77   -2.62   0.000   0.143   0.000    0.00
   8.700   26.13    4.35   -2.43   0.000   0.143   0.000    0.00
   8.750   26.89    4.68   -1.85   0.000   0.143   0.000    0.00
   8.800   26.29    5.07   -1.85   0.000   0.143   0.000    0.00
   8.850   25.71    5.46   -1.52   0.000   0.143   0.000    0.00
   8.900   25.41    3.25   -1.26   0.000   0.143   0.000    0.00
   8.950   25.07    2.72   -1.45   0.000   0.143   0.000    0.00
   9.000   25.21    0.80   -1.90   0.000   0.143   0.000    0.00
   9.050   25.96    0.33   -2.81   0.000   0.143   0.000    0.00
   9.100   26.13    1.65   -2.42   0.000   0.143   0.000    0.00
   9.150   26.03    1.52   -2.10   0.000   0.143   0.000    0.00
   9.200   26.26    0.42   -1.27   0.000   0.143   0.000    0.00
   9.250   26.59    1.67   -1.33   0.000   0.143   0.000    0.00
   9.300   26.44    1.46   -1.86   0.000   0.143   0.000    0.00
   9.350   26.04    1.14   -2.07   0.000   0.143   0.000    0.00
   9.400   26.08    2.22   -0.72   0.000   0.143   0.000    0.00
   9.450   26.19    2.57   -0.66   0.000   0.143   0.000    0.00
   9.500   26.53    4.17   -0.94   0.000   0.143   0.000    0.00
   9.550   25.70    3.26    0.02   0.000   0.143   0.000    0.00
   9.600   25.92    1.07   -0.77   0.000   0.143   0.000    0.00
   9.650   25.85    3.14   -1.86   0.000   0.143   0.000    0.00
   9.700   25.86    3.20   -1.52   0.000   0.143   0.000    0.00
   9.750   25.84    2.05   -2.07   0.000   0.143   0.000    0.00
   9.800   25.35    1.91   -1.69   0.000   0.143   0.000    0.00
   9.850   25.69    1.78   -1.71   0.000   0.143   0.000    0.00
   9.900   25.75    1.56   -3.01   0.000   0.143   0.000    0.00
   9.950   25.62    0.25   -3.04   0.000   0.143   0.000    0.00
  10.000   25.84   -0.48   -3.03   0.000   0.143   0.000    0.00
  10.050   26.12    0.27   -2.89   0.000   0.143   0.000    0.00
  10.100   26.55    1.05   -3.62   0.000   0.143   0.000    0.00
  10.150   26.74    1.68   -3.34   0.000   0.143   0.000    0.00
  10.200   25.93    1.91   -2.17   0.000   0.143   0.000    0.00
  10.250   26.05    2.02   -3.03   0.000   0.143   0.000    0.00
  10.300   26.27    2.07   -3.55   0.000   0.143   0.000    0.00
  10.350   25.63    4.13   -3.07   0.000   0.143   0.000    0.00
  10.400   24.74    5.01   -3.41   0.000   0.143   0.000    0.00
  10.450   24.82    5.49   -3.04   0.000   0.143   0.000    0.00
  10.500   25.29    4.90   -3.19   0.000   0.143   0.000    0.00
  10.550   25.88    4.50   -2.61   0.000   0.143   0.000    0.00
  10.600   26.01    3.81   -2.58   0.000   0.143   0.000    0.00
  10.650   26.42    5.36   -2.74   0.000   0.143   0.000    0.00
  10.700   26.69    6.32   -2.21   0.000   0.143   0.000    0.00
  10.750   26.55    6.46   -1.90   0.000   0.143   0.000    0.00
  10.800   25.94    5.35   -1.49   0.000   0.143   0.000    0.00
  10.850   25.56    5.11   -1.37   0.000   0.143   0.000    0.00
  10.900   25.59    4.65   -1.28   0.000   0.143   0.000    0.00
  10.950   25.46    3.78   -0.92   0.000   0.143   0.000    0.00
  11.000   25.18    3.72   -1.24   0.000   0.143   0.000    0.00
  11.050   25.19    2.61   -0.66   0.000   0.143   0.000    0.00
  11.100   24.48    3.49   -0.79   0.000   0.143   0.000    0.00
  11.150   25.05    2.61   -1.27   0.000   0.143   0.000    0.00
  11.200   25.11    1.43   -1.53   0.000   0.143   0.000    0.00
  11.250   24.77    0.80   -1.23   0.000   0.143   0.000    0.00
  11.300   24.20   -0.26   -0.88   0.000   0.143   0.000    0.00
  11.350   24.64   -0.61   -1.14   0.000   0.143   0.000    0.00
  11.400   24.06   -3.11   -1.22   0.000   0.143   0.000    0.00
  11.450   24.24   -5.03   -1.48   0.000   0.143   0.000    0.00
  11.500   23.90   -3.99   -1.29   0.000   0.143   0.000    0.00
  11.550   24.69   -2.02   -1.99   0.000   0.143   0.000    0.00
  11.600   25.45   -3.16   -1.39   0.000   0.143   0.000    0.00
  11.650   25.36   -1.36   -1.32   0.000   0.143   0.000    0.00
  11.700   24.55   -1.50   -0.95   0.000   0.143   0.000    0.00
  11.750   24.30    1.04   -0.24   0.000   0.143   0.000    0.00
  11.800   23.85    2.74   -0.45   0.000   0.143   0.000    0.00
  11.850   23.74    0.59    0.29   0.000   0.143   0.000    0.00
  11.900   24.94   -1.68    0.13   0.000   0.143   0.000    0.00
  11.950   25.37   -2.73    0.09   0.000   0.143   0.000    0.00
  12.000   25.22   -1.03   -0.50   0.000   0.143   0.000    0.00
  12.050   24.44   -0.21   -0.12   0.000   0.143   0.000    0.00
  12.100   24.57   -0.61   -0.53   0.000   0.143   0.000    0.00
  12.150   25.10   -0.88   -1.41   0.000   0.143   0.000    0.00
  12.200   25.41    0.04   -1.25   0.000   0.143   0.000    0.00
  12.250   25.31   -1.00   -2.24   0.000   0.143   0.000    0.00
  12.300   25.50   -1.83   -2.72   0.000   0.143   0.000    0.00
  12.350   25.36   -2.14   -2.82   0.000   0.143   0.000    0.00
  12.400   24.96   -1.60   -2.39   0.000   0.143   0.000    0.00
  12.450   24.84   -1.89   -2.15   0.000   0.143   0.000    0.00
  12.500   24.94   -1.23   -1.74   0.000   0.143   0.000    0.00
  12.550   25.10    0.29   -2.10   0.000   0.143   0.000    0.00
  12.600   24.62    1.34   -1.43   0.000   0.143   0.000    0.00
  12.650   24.41   -1.27   -2.72   0.000   0.143   0.000    0.00
  12.700   24.09   -1.01   -3.18   0.000   0.143   0.000    0.00
  12.750   23.55    1.05   -3.50   0.000   0.143   0.000    0.00
  12.800   23.61   -0.10   -3.07   0.000   0.143   0.000    0.00
  12.850   23.99    0.21   -3.50   0.000   0.143   0.000    0.00
  12.900   24.18    0.19   -3.63   0.000   0.143   0.000    0.00
  12.950   24.70   -1.70   -3.49   0.000   0.143   0.000    0.00
  13.000   25.38   -2.93   -3.22   0.000   0.143   0.000    0.00
  13.050   26.12   -0.96   -3.21   0.000   0.143   0.000    0.00
  13.100   26.34   -0.93   -2.94   0.000   0.143   0.000    0.00
  13.150   25.99   -2.89   -3.06   0.000   0.143   0.000    0.00
  13.200   25.38   -4.02   -2.68   0.000   0.143   0.000    0.00
  13.250   25.41   -5.01   -2.42   0.000   0.143   0.000    0.00
  13.300   25.67   -3.35   -1.93   0.000   0.143   0.000    0.00
  13.350   25.11   -5.22   -1.35   0.000   0.143   0.000    0.00
  13.400   24.98   -3.91   -1.06   0.000   0.143   0.000    0.00
  13.450   26.04   -1.81   -1.50   0.000   0.143   0.000    0.00
  13.500   25.81   -0.66   -2.00   0.000   0.143   0.000    0.00
  13.550   25.09   -1.65   -1.41   0.000   0.143   0.000    0.00
  13.600   24.75   -0.66   -0.85   0.000   0.143   0.000    0.00
  13.650   25.17   -0.66   -0.97   0.000   0.143   0.000    0.00
  13.700   25.57    1.55   -0.17   0.000   0.143   0.000    0.00
  13.750   25.31    1.21   -0.27   0.000   0.143   0.000    0.00
  13.800   25.40    2.30    0.23   0.000   0.143   0.000    0.00
  13.850   25.29    3.52   -0.09   0.000   0.143   0.000    0.00
  13.900   25.46    3.01   -0.66   0.000   0.143   0.000    0.00
  13.950   25.41    3.31   -1.11   0.000   0.143   0.000    0.00
  14.000   25.13    3.05    0.06   0.000   0.143   0.000    0.00
  14.050   25.18    2.80    0.79   0.000   0.143   0.000    0.00
  14.100   25.59    2.78   -0.23   0.000   0.143   0.000    0.00
  14.150   25.01    3.00   -0.19   0.000   0.143   0.000    0.00
  14.200   25.67    3.72   -0.37   0.000   0.143   0.000    0.00
  14.250   25.17    5.16    0.31   0.000   0.143   0.000    0.00
  14.300   25.88    4.95   -0.36   0.000   0.143   0.000    0.00
  14.350   25.66    4.28   -0.56   0.000   0.143   0.000    0.00
  14.400   24.95    4.50   -0.28   0.000   0.143   0.000    0.00
  14.450   23.99    3.39   -0.43   0.000   0.143   0.000    0.00
  14.500   24.46    1.01   -0.11   0.000   0.143   0.000    0.00
  14.550   24.69   -0.94   -0.06   0.000   0.143   0.000    0.00
  14.600   25.71   -1.48   -0.15   0.000   0.143   0.000    0.00
  14.650   25.07    1.43   -0.43   0.000   0.143   0.000    0.00
  14.700   24.68    2.21   -0.78   0.000   0.143   0.000    0.00
  14.750   24.81    2.85   -0.43   0.000   0.143   0.000    0.00
  14.800   24.81    3.52    0.41   0.000   0.143   0.000    0.00
  14.850   24.00    2.91    1.05   0.000   0.143   0.000    0.00
  14.900   23.91    2.95    1.17   0.000   0.143   0.000    0.00
  14.950   23.55    1.78    0.84   0.000   0.143   0.000    0.00
  15.000   23.61    1.45    0.70   0.000   0.143   0.000    0.00
  15.050   22.98    3.44    0.33   0.000   0.143   0.000    0.00
  15.100   23.32    2.56   -0.46   0.000   0.143   0.000    0.00
  15.150   23.24    3.80   -0.30   0.000   0.143   0.000    0.00
  15.200   23.44    2.74   -0.14   0.000   0.143   0.000    0.00
  15.250   23.48    2.73   -0.36   0.000   0.143   0.000    0.00
  15.300   23.23    3.44    0.33   0.000   0.143   0.000    0.00
  15.350   22.78    3.67    0.96   0.000   0.143   0.000    0.00
  15.400   22.67    3.52    1.44   0.000   0.143   0.000    0.00
  15.450   21.82    4.98    1.78   0.000   0.143   0.000    0.00
  15.500   21.35    5.13    2.39   0.000   0.143   0.000    0.00
  15.550   21.35    3.83    3.38   0.000   0.143   0.000    0.00
  15.600   21.78    4.84    3.36   0.000   0.143   0.000    0.00
  15.650   22.26    5.84    3.36   0.000   0.143   0.000    0.00
  15.700   22.20    5.02    3.37   0.000   0.143   0.000    0.00
  15.750   23.13    3.83    3.40   0.000   0.143   0.000    0.00
  15.800   22.96    3.83    3.22   0.000   0.143   0.000    0.00
  15.850   22.95    3.59    3.49   0.000   0.143   0.000    0.00
  15.900   22.84    3.20    3.61   0.000   0.143   0.000    0.00
  15.950   22.52    2.51    3.48   0.000   0.143   0.000    0.00
  16.000   22.08    2.20    3.96   0.000   0.143   0.000    0.00
  16.050   22.05   -0.73    4.05   0.000   0.143   0.000    0.00
  16.100   22.28    2.54    4.06   0.000   0.143   0.000    0.00
  16.150   22.41    1.74    2.68   0.000   0.143   0.000    0.00
  16.200   22.63    1.68    3.27   0.000   0.143   0.000    0.00
  16.250   22.85    2.12    3.58   0.000   0.143   0.000    0.00
  16.300   22.77    0.82    3.05   0.000   0.143   0.000    0.00
  16.350   22.27    1.77    3.56   0.000   0.143   0.000    0.00
  16.400   22.11    4.75    3.57   0.000   0.143   0.000    0.00
  16.450   22.77    1.68    2.87   0.000   0.143   0.000    0.00
  16.500   23.06    1.69    2.73   0.000   0.143   0.000    0.00
  16.550   22.83    3.40    3.50   0.000   0.143   0.000    0.00
  16.600   23.12    3.80    3.06   0.000   0.143   0.000    0.00
  16.650   22.42    4.51    3.00   0.000   0.143   0.000    0.00
  16.700   22.87    5.37    2.95   0.000   0.143   0.000    0.00
  16.750   23.28    5.09    2.02   0.000   0.143   0.000    0.00
  16.800   23.62    4.64    2.04   0.000   0.143   0.000    0.00
  16.850   23.34    4.64    1.22   0.000   0.143   0.000    0.00
  16.900   23.30    3.46    0.74   0.000   0.143   0.000    0.00
  16.950   23.68    3.64    0.02   0.000   0.143   0.000    0.00
  17.000   23.54    4.14   -1.42   0.000   0.143   0.000    0.00
  17.050   23.81    6.44   -2.01   0.000   0.143   0.000    0.00
  17.100   24.14    7.85   -0.95   0.000   0.143   0.000    0.00
  17.150   23.92    7.69    0.63   0.000   0.143   0.000    0.00
  17.200   23.50    6.09    0.46   0.000   0.143   0.000    0.00
  17.250   23.42    7.48    0.10   0.000   0.143   0.000    0.00
  17.300   23.33    7.45    0.16   0.000   0.143   0.000    0.00
  17.350   23.76    8.46   -0.40   0.000   0.143   0.000    0.00
  17.400   23.65    8.90   -0.79   0.000   0.143   0.000    0.00
  17.450   23.56   10.04   -0.78   0.000   0.143   0.000    0.00
  17.500   24.06   10.24   -0.47   0.000   0.143   0.000    0.00
  17.550   23.76   10.17   -0.15   0.000   0.143   0.000    0.00
  17.600   23.69    9.41   -0.87   0.000   0.143   0.000    0.00
  17.650   23.18   10.14   -1.10   0.000   0.143   0.000    0.00
  17.700   23.34    8.56   -0.95   0.000   0.143   0.000    0.00
  17.750   22.99    8.27   -0.91   0.000   0.143   0.000    0.00
  17.800   22.26    8.93   -1.23   0.000   0.143   0.000    0.00
  17.850   22.84    8.73   -0.60   0.000   0.143   0.000    0.00
  17.900   22.78    8.22   -0.70   0.000   0.143   0.000    0.00
  17.950   21.88    9.04    0.14   0.000   0.143   0.000    0.00
  18.000   21.75    5.36   -0.07   0.000   0.143   0.000    0.00
  18.050   21.52    3.22   -0.38   0.000   0.143   0.000    0.00
  18.100   21.73    2.56   -0.62   0.000   0.143   0.000    0.00
  18.150   21.84    2.75    0.50   0.000   0.143   0.000    0.00
  18.200   22.13    2.13    0.24   0.000   0.143   0.000    0.00
  18.250   21.94    1.72    0.03   0.000   0.143   0.000    0.00
  18.300   22.15    2.53   -0.24   0.000   0.143   0.000    0.00
  18.350   22.03    3.52    0.12   0.000   0.143   0.000    0.00
  18.400   22.09    4.65   -0.27   0.000   0.143   0.000    0.00
  18.450   21.83    2.28   -0.70   0.000   0.143   0.000    0.00
  18.500   22.04    1.87   -0.27   0.000   0.143   0.000    0.00
  18.550   22.43    1.21   -0.86   0.000   0.143   0.000    0.00
  18.600   23.15    0.15   -1.34   0.000   0.143   0.000    0.00
  18.650   23.59    0.65   -1.26   0.000   0.143   0.000    0.00
  18.700   23.16    0.42   -1.40   0.000   0.143   0.000    0.00
  18.750   23.04   -3.30    0.13   0.000   0.143   0.000    0.00
  18.800   22.51   -4.90   -0.66   0.000   0.143   0.000    0.00
  18.850   22.09   -1.34   -0.70   0.000   0.143   0.000    0.00
  18.900   21.80   -2.88   -0.06   0.000   0.143   0.000    0.00
  18.950   22.46   -1.00    0.40   0.000   0.143   0.000    0.00
  19.000   23.05   -0.66    0.17   0.000   0.143   0.000    0.00
  19.050   22.19   -0.17    0.19   0.000   0.143   0.000    0.00
  19.100   21.92    0.28    0.33   0.000   0.143   0.000    0.00
  19.150   22.65    0.94    0.18   0.000   0.143   0.000    0.00
  19.200   23.15    0.68    0.28   0.000   0.143   0.000    0.00
  19.250   24.24    1.36    0.41   0.000   0.143   0.000    0.00
  19.300   23.40    0.84   -0.01   0.000   0.143   0.000    0.00
  19.350   22.89    0.23    0.44   0.000   0.143   0.000    0.00
  19.400   23.08   -0.53    0.98   0.000   0.143   0.000    0.00
  19.450   23.12   -1.06    0.31   0.000   0.143   0.000    0.00
  19.500   22.93    0.99    0.07   0.000   0.143   0.000    0.00
  19.550   23.05    0.83   -0.56   0.000   0.143   0.000    0.00
  19.600   22.60    2.39    0.12   0.000   0.143   0.000    0.00
  19.650   22.90    2.17   -0.11   0.000   0.143   0.000    0.00
  19.700   22.97    1.77   -0.72   0.000   0.143   0.000    0.00
  19.750   23.32    1.39   -0.69   0.000   0.143   0.000    0.00
  19.800   23.09    2.46   -0.26   0.000   0.143   0.000    0.00
  19.850   22.30    3.94    0.00   0.000   0.143   0.000    0.00
  19.900   22.32    4.59   -0.26   0.000   0.143   0.000    0.00
  19.950   23.07    4.90   -0.61   0.000   0.143   0.000    0.00
  20.000   22.33    3.04   -0.89   0.000   0.143   0.000    0.00
  20.050   22.64    2.59   -1.17   0.000   0.143   0.000    0.00
  20.100   22.92    1.58   -0.89   0.000   0.143   0.000    0.00
  20.150   22.97    2.21   -1.07   0.000   0.143   0.000    0.00
  20.200   22.72    1.95   -0.99   0.000   0.143   0.000    0.00
  20.250   23.10    2.72   -0.92   0.000   0.143   0.000    0.00
  20.300   22.89    1.23   -0.40   0.000   0.143   0.000    0.00
  20.350   23.53    1.38   -0.19   0.000   0.143   0.000    0.00
  20.400   23.71    2.07   -0.27   0.000   0.143   0.000    0.00
  20.450   23.52    2.03   -0.63   0.000   0.143   0.000    0.00
  20.500   23.56    1.12   -0.36   0.000   0.143   0.000    0.00
  20.550   23.55    1.60   -0.71   0.000   0.143   0.000    0.00
  20.600   23.62    0.79   -0.08   0.000   0.143   0.000    0.00
  20.650   23.51    1.33    0.09   0.000   0.143   0.000    0.00
  20.700   23.07    2.39    0.02   0.000   0.143   0.000    0.00
  20.750   23.57    3.26    0.64   0.000   0.143   0.000    0.00
  20.800   24.30    2.48    1.28   0.000   0.143   0.000    0.00
  20.850   25.53    1.61    0.93   0.000   0.143   0.000    0.00
  20.900   25.23    2.16    1.04   0.000   0.143   0.000    0.00
  20.950   23.90    3.38    1.33   0.000   0.143   0.000    0.00
  21.000   23.74    4.89    1.36   0.000   0.143   0.000    0.00
  21.050   23.85    3.01    1.12   0.000   0.143   0.000    0.00
  21.100   23.60    2.03    0.92   0.000   0.143   0.000    0.00
  21.150   23.99    2.78    0.95   0.000   0.143   0.000    0.00
  21.200   24.10    2.78    1.33   0.000   0.143   0.000    0.00
  21.250   24.33    4.43    1.55   0.000   0.143   0.000    0.00
  21.300   23.92    5.66    1.71   0.000   0.143   0.000    0.00
  21.350   24.05    3.57    1.76   0.000   0.143   0.000    0.00
  21.400   23.76    4.41    1.86   0.000   0.143   0.000    0.00
  21.450   23.76    5.07    1.19   0.000   0.143   0.000    0.00
  21.500   23.82    5.53    0.84   0.000   0.143   0.000    0.00
  21.550   24.31    5.03    2.17   0.000   0.143   0.000    0.00
  21.600   24.88    4.67    2.24   0.000   0.143   0.000    0.00
  21.650   24.25    5.19    1.80   0.000   0.143   0.000    0.00
  21.700   24.34    5.01    1.64   0.000   0.143   0.000    0.00
  21.750   24.07    4.56    2.31   0.000   0.143   0.000    0.00
  21.800   23.95    5.35    2.02   0.000   0.143   0.000    0.00
  21.850   24.29    5.36    2.35   0.000   0.143   0.000    0.00
  21.900   23.99    6.79    2.26   0.000   0.143   0.000    0.00
  21.950   23.61    5.56    2.63   0.000   0.143   0.000    0.00
  22.000   24.07    5.38    1.81   0.000   0.143   0.000    0.00
  22.050   24.28    5.49    1.97   0.000   0.143   0.000    0.00
  22.100   23.70    6.36    2.00   0.000   0.143   0.000    0.00
  22.150   23.38    7.38    0.64   0.000   0.143   0.000    0.00
  22.200   23.39    8.36    0.31   0.000   0.143   0.000    0.00
  22.250   23.08    9.12    0.75   0.000   0.143   0.000    0.00
  22.300   22.29    8.30    0.18   0.000   0.143   0.000    0.00
  22.350   21.61    9.26   -0.30   0.000   0.143   0.000    0.00
  22.400   21.69    6.93   -0.18   0.000   0.143   0.000    0.00
  22.450   21.48    6.68   -0.74   0.000   0.143   0.000    0.00
  22.500   21.39    5.98   -0.34   0.000   0.143   0.000    0.00
  22.550   21.64    4.94   -0.04   0.000   0.143   0.000    0.00
  22.600   21.60    4.56   -0.16   0.000   0.143   0.000    0.00
  22.650   21.53    3.23   -0.93   0.000   0.143   0.000    0.00
  22.700   21.55    0.75   -0.13   0.000   0.143   0.000    0.00
  22.750   21.15    0.29   -0.77   0.000   0.143   0.000    0.00