! This hub-height wind-speed file was generated by TurbSim (v1.06.00, 21-Sep-2012) on 07-Dec-2015 at 15:31:13.
!
! The requested statistics for this data were:
!    Mean Total Wind Speed =   21.000 m/s
!
!   Time  HorSpd  WndDir  VerSpd  HorShr  VerShr  LnVShr  GstSpd
!  (sec)   (m/s)   (deg)   (m/s)     (-)     (-)     (-)   (m/s)
   0.000   28.34    2.09   -2.78   0.000   0.143   0.000    0.00
   0.050   27.99    1.18   -2.38   0.000   0.143   0.000    0.00
   0.100   27.52    0.89   -2.30   0.000   0.143   0.000    0.00
   0.150   28.61    2.67   -1.91   0.000   0.143   0.000    0.00
   0.200   28.51    2.62   -1.72   0.000   0.143   0.000    0.00
   0.250   28.27    3.44   -1.54   0.000   0.143   0.000    0.00
   0.300   27.78    3.15   -1.08   0.000   0.143   0.000    0.00
   0.350   27.75    2.71   -1.31   0.000   0.143   0.000    0.00
   0.400   27.88    1.96   -0.81   0.000   0.143   0.000    0.00
   0.450   28.21    2.77   -0.79   0.000   0.143   0.000    0.00
   0.500   27.70    2.91   -1.10   0.000   0.143   0.000    0.00
   0.550   27.19    1.57   -1.31   0.000   0.143   0.000    0.00
   0.600   27.34    0.67   -1.20   0.000   0.143   0.000    0.00
   0.650   27.51   -0.42   -1.31   0.000   0.143   0.000    0.00
   0.700   27.49    0.33   -1.66   0.000   0.143   0.000    0.00
   0.750   27.55    0.96   -1.16   0.000   0.143   0.000    0.00
   0.800   27.70    1.01   -0.37   0.000   0.143   0.000    0.00
   0.850   27.42    1.05   -1.41   0.000   0.143   0.000    0.00
   0.900   27.80    0.93   -2.56   0.000   0.143   0.000    0.00
   0.950   27.97    1.21   -2.99   0.000   0.143   0.000    0.00
   1.000   27.12    0.44   -3.38   0.000   0.143   0.000    0.00
   1.050   26.50    2.05   -3.32   0.000   0.143   0.000    0.00
   1.100   26.41    1.65   -3.12   0.000   0.143   0.000    0.00
   1.150   26.26    3.31   -2.61   0.000   0.143   0.000    0.00
   1.200   25.37    3.80   -2.92   0.000   0.143   0.000    0.00
   1.250   25.60    3.49   -2.65   0.000   0.143   0.000    0.00
   1.300   25.76    4.71   -2.79   0.000   0.143   0.000    0.00
   1.350   25.53    4.39   -2.38   0.000   0.143   0.000    0.00
   1.400   26.13    4.85   -2.72   0.000   0.143   0.000    0.00
   1.450   26.61    4.44   -3.38   0.000   0.143   0.000    0.00
   1.500   26.88    4.48   -3.23   0.000   0.143   0.000    0.00
   1.550   27.06    3.89   -2.71   0.000   0.143   0.000    0.00
   1.600   26.88    3.22   -3.28   0.000   0.143   0.000    0.00
   1.650   27.19    3.94   -3.18   0.000   0.143   0.000    0.00
   1.700   27.16    4.73   -3.19   0.000   0.143   0.000    0.00
   1.750   26.91    4.54   -1.90   0.000   0.143   0.000    0.00
   1.800   26.92    3.71   -1.93   0.000   0.143   0.000    0.00
   1.850   26.64    3.58   -2.55   0.000   0.143   0.000    0.00
   1.900   27.08    2.01   -2.27   0.000   0.143   0.000    0.00
   1.950   26.78    2.38   -2.66   0.000   0.143   0.000    0.00
   2.000   26.40    4.00   -2.92   0.000   0.143   0.000    0.00
   2.050   26.27    4.31   -1.88   0.000   0.143   0.000    0.00
   2.100   26.09    2.83   -2.29   0.000   0.143   0.000    0.00
   2.150   25.43    2.27   -2.18   0.000   0.143   0.000    0.00
   2.200   24.80    3.89   -2.50   0.000   0.143   0.000    0.00
   2.250   25.66    4.45   -1.78   0.000   0.143   0.000    0.00
   2.300   26.31    3.10   -1.85   0.000   0.143   0.000    0.00
   2.350   26.42    4.34   -2.09   0.000   0.143   0.000    0.00
   2.400   26.24    4.19   -2.68   0.000   0.143   0.000    0.00
   2.450   26.51    3.00   -3.29   0.000   0.143   0.000    0.00
   2.500   27.14    3.15   -3.63   0.000   0.143   0.000    0.00
   2.550   26.63    2.92   -3.58   0.000   0.143   0.000    0.00
   2.600   26.01    2.83   -4.32   0.000   0.143   0.000    0.00
   2.650   25.56    2.98   -4.52   0.000   0.143   0.000    0.00
   2.700   25.58    4.21   -3.78   0.000   0.143   0.000    0.00
   2.750   25.94    6.44   -3.74   0.000   0.143   0.000    0.00
   2.800   26.80    6.98   -3.74   0.000   0.143   0.000    0.00
   2.850   26.17    6.04   -3.14   0.000   0.143   0.000    0.00
   2.900   26.53    5.20   -3.12   0.000   0.143   0.000    0.00
   2.950   26.26    3.81   -2.70   0.000   0.143   0.000    0.00
   3.000   26.06    4.53   -2.79   0.000   0.143   0.000    0.00
   3.050   26.08    4.33   -2.80   0.000   0.143   0.000    0.00
   3.100   25.41    3.29   -2.34   0.000   0.143   0.000    0.00
   3.150   25.62    2.90   -1.82   0.000   0.143   0.000    0.00
   3.200   25.30    3.20   -1.35   0.000   0.143   0.000    0.00
   3.250   25.22    3.73   -1.04   0.000   0.143   0.000    0.00
   3.300   25.59    4.24   -1.72   0.000   0.143   0.000    0.00
   3.350   24.89    3.41   -1.63   0.000   0.143   0.000    0.00
   3.400   24.76    1.83   -1.82   0.000   0.143   0.000    0.00
   3.450   25.43    1.71   -1.63   0.000   0.143   0.000    0.00
   3.500   25.01    1.38   -1.69   0.000   0.143   0.000    0.00
   3.550   24.62   -2.06   -1.77   0.000   0.143   0.000    0.00
   3.600   24.59   -1.89   -1.89   0.000   0.143   0.000    0.00
   3.650   25.48   -0.32   -1.79   0.000   0.143   0.000    0.00
   3.700   24.69    1.52   -1.82   0.000   0.143   0.000    0.00
   3.750   24.99    2.71   -2.00   0.000   0.143   0.000    0.00
   3.800   25.43    4.38   -2.33   0.000   0.143   0.000    0.00
   3.850   24.83    5.24   -2.26   0.000   0.143   0.000    0.00
   3.900   24.74    3.87   -2.25   0.000   0.143   0.000    0.00
   3.950   24.47    4.67   -2.59   0.000   0.143   0.000    0.00
   4.000   23.29    5.02   -2.56   0.000   0.143   0.000    0.00
   4.050   23.36    2.89   -3.11   0.000   0.143   0.000    0.00
   4.100   23.63    1.40   -3.59   0.000   0.143   0.000    0.00
   4.150   24.45    2.49   -3.87   0.000   0.143   0.000    0.00
   4.200   24.49    2.10   -4.12   0.000   0.143   0.000    0.00
   4.250   24.04    3.39   -4.30   0.000   0.143   0.000    0.00
   4.300   24.12    2.43   -3.65   0.000   0.143   0.000    0.00
   4.350   23.80    3.55   -3.16   0.000   0.143   0.000    0.00
   4.400   24.07    4.41   -2.66   0.000   0.143   0.000    0.00
   4.450   24.71    6.41   -2.43   0.000   0.143   0.000    0.00
   4.500   24.85    6.51   -2.31   0.000   0.143   0.000    0.00
   4.550   24.29    5.36   -2.03   0.000   0.143   0.000    0.00
   4.600   23.81    7.68   -2.03   0.000   0.143   0.000    0.00
   4.650   23.34    8.12   -1.44   0.000   0.143   0.000    0.00
   4.700   23.79    9.09   -1.34   0.000   0.143   0.000    0.00
   4.750   23.34    6.93   -0.97   0.000   0.143   0.000    0.00
   4.800   23.59    6.88   -1.32   0.000   0.143   0.000    0.00
   4.850   23.69    6.41   -0.98   0.000   0.143   0.000    0.00
   4.900   22.66    3.82   -0.41   0.000   0.143   0.000    0.00
   4.950   22.37    5.43   -0.59   0.000   0.143   0.000    0.00
   5.000   22.53    7.18   -0.42   0.000   0.143   0.000    0.00
   5.050   22.29    7.11   -1.19   0.000   0.143   0.000    0.00
   5.100   22.31    5.88   -1.11   0.000   0.143   0.000    0.00
   5.150   21.79    5.00   -1.42   0.000   0.143   0.000    0.00
   5.200   22.05    6.66   -1.47   0.000   0.143   0.000    0.00
   5.250   21.85    5.82   -1.49   0.000   0.143   0.000    0.00
   5.300   22.56    4.82   -1.72   0.000   0.143   0.000    0.00
   5.350   22.91    4.64   -1.52   0.000   0.143   0.000    0.00
   5.400   23.24    3.49   -1.67   0.000   0.143   0.000    0.00
   5.450   23.41    3.56   -2.09   0.000   0.143   0.000    0.00
   5.500   23.43    1.31   -2.12   0.000   0.143   0.000    0.00
   5.550   23.72    1.41   -2.75   0.000   0.143   0.000    0.00
   5.600   24.58    0.76   -3.11   0.000   0.143   0.000    0.00
   5.650   24.38    0.24   -3.49   0.000   0.143   0.000    0.00
   5.700   24.77    2.09   -2.87   0.000   0.143   0.000    0.00
   5.750   24.69    3.02   -2.21   0.000   0.143   0.000    0.00
   5.800   24.14    4.05   -2.89   0.000   0.143   0.000    0.00
   5.850   24.08    4.10   -2.83   0.000   0.143   0.000    0.00
   5.900   24.54    3.38   -3.18   0.000   0.143   0.000    0.00
   5.950   24.65    2.76   -2.18   0.000   0.143   0.000    0.00
   6.000   25.20    3.54   -2.20   0.000   0.143   0.000    0.00
   6.050   25.27    3.44   -2.25   0.000   0.143   0.000    0.00
   6.100   24.91    3.68   -2.13   0.000   0.143   0.000    0.00
   6.150   25.03    4.96   -2.30   0.000   0.143   0.000    0.00
   6.200   24.94    4.76   -2.53   0.000   0.143   0.000    0.00
   6.250   25.13    1.29   -2.41   0.000   0.143   0.000    0.00
   6.300   25.19    1.06   -2.48   0.000   0.143   0.000    0.00
   6.350   25.24   -0.46   -2.45   0.000   0.143   0.000    0.00
   6.400   25.11    0.92   -2.27   0.000   0.143   0.000    0.00
   6.450   25.28    1.10   -1.97   0.000   0.143   0.000    0.00
   6.500   25.34    0.37   -2.10   0.000   0.143   0.000    0.00
   6.550   25.15    0.98   -2.41   0.000   0.143   0.000    0.00
   6.600   25.23    1.71   -2.56   0.000   0.143   0.000    0.00
   6.650   25.53   -0.57   -2.27   0.000   0.143   0.000    0.00
   6.700   25.99   -1.68   -2.02   0.000   0.143   0.000    0.00
   6.750   26.58   -2.38   -1.31   0.000   0.143   0.000    0.00
   6.800   25.95   -3.02   -0.89   0.000   0.143   0.000    0.00
   6.850   26.17   -3.87   -0.69   0.000   0.143   0.000    0.00
   6.900   25.31   -2.57   -1.14   0.000   0.143   0.000    0.00
   6.950   25.06   -3.29   -0.89   0.000   0.143   0.000    0.00
   7.000   25.09   -1.46   -0.76   0.000   0.143   0.000    0.00
   7.050   25.21    0.47   -0.21   0.000   0.143   0.000    0.00
   7.100   25.30   -1.37   -1.58   0.000   0.143   0.000    0.00
   7.150   24.89   -1.62   -1.33   0.000   0.143   0.000    0.00
   7.200   24.79   -1.09   -1.10   0.000   0.143   0.000    0.00
   7.250   24.90    1.02   -1.73   0.000   0.143   0.000    0.00
   7.300   24.84    2.75   -1.81   0.000   0.143   0.000    0.00
   7.350   24.27    1.88   -2.42   0.000   0.143   0.000    0.00
   7.400   25.01    3.67   -2.48   0.000   0.143   0.000    0.00
   7.450   25.34    2.75   -2.82   0.000   0.143   0.000    0.00
   7.500   25.54    0.70   -1.23   0.000   0.143   0.000    0.00
   7.550   26.26    0.90   -1.20   0.000   0.143   0.000    0.00
   7.600   26.16    1.84   -1.28   0.000   0.143   0.000    0.00
   7.650   26.05    1.02   -1.48   0.000   0.143   0.000    0.00
   7.700   25.62    2.25   -0.63   0.000   0.143   0.000    0.00
   7.750   25.94    2.59   -0.75   0.000   0.143   0.000    0.00
   7.800   25.59    1.35   -1.10   0.000   0.143   0.000    0.00
   7.850   25.61    1.23   -0.86   0.000   0.143   0.000    0.00
   7.900   25.69    0.68   -1.52   0.000   0.143   0.000    0.00
   7.950   24.93    1.66   -1.24   0.000   0.143   0.000    0.00
   8.000   24.81    3.26   -1.95   0.000   0.143   0.000    0.00
   8.050   25.18    4.16   -0.93   0.000   0.143   0.000    0.00
   8.100   25.29    3.37   -0.38   0.000   0.143   0.000    0.00
   8.150   24.88    2.64   -1.40   0.000   0.143   0.000    0.00
   8.200   24.34    3.79   -1.59   0.000   0.143   0.000    0.00
   8.250   24.38    5.10   -1.82   0.000   0.143   0.000    0.00
   8.300   24.50    5.59   -2.65   0.000   0.143   0.000    0.00
   8.350   24.47    4.91   -2.77   0.000   0.143   0.000    0.00
   8.400   24.44    3.60   -3.01   0.000   0.143   0.000    0.00
   8.450   24.43    3.74   -2.28   0.000   0.143   0.000    0.00
   8.500   25.31    5.24   -1.62   0.000   0.143   0.000    0.00
   8.550   25.61    5.28   -2.21   0.000   0.143   0.000    0.00
   8.600   25.26    4.56   -2.24   0.000   0.143   0.000    0.00
   8.650   25.41    4.78   -2.52   0.000   0.143   0.000    0.00
   8.700   24.99    4.37   -2.34   0.000   0.143   0.000    0.00
   8.750   25.70    4.69   -1.79   0.000   0.143   0.000    0.00
   8.800   25.14    5.07   -1.79   0.000   0.143   0.000    0.00
   8.850   24.59    5.46   -1.49   0.000   0.143   0.000    0.00
   8.900   24.31    3.28   -1.24   0.000   0.143   0.000    0.00
   8.950   23.99    2.77   -1.42   0.000   0.143   0.000    0.00
   9.000   24.12    0.87   -1.84   0.000   0.143   0.000    0.00
   9.050   24.83    0.41   -2.69   0.000   0.143   0.000    0.00
   9.100   24.99    1.71   -2.33   0.000   0.143   0.000    0.00
   9.150   24.89    1.58   -2.03   0.000   0.143   0.000    0.00
   9.200   25.11    0.50   -1.25   0.000   0.143   0.000    0.00
   9.250   25.41    1.73   -1.30   0.000   0.143   0.000    0.00
   9.300   25.27    1.52   -1.81   0.000   0.143   0.000    0.00
   9.350   24.90    1.21   -2.00   0.000   0.143   0.000    0.00
   9.400   24.94    2.27   -0.73   0.000   0.143   0.000    0.00
   9.450   25.04    2.61   -0.67   0.000   0.143   0.000    0.00
   9.500   25.36    4.19   -0.93   0.000   0.143   0.000    0.00
   9.550   24.58    3.29   -0.04   0.000   0.143   0.000    0.00
   9.600   24.78    1.13   -0.78   0.000   0.143   0.000    0.00
   9.650   24.72    3.17   -1.81   0.000   0.143   0.000    0.00
   9.700   24.73    3.22   -1.49   0.000   0.143   0.000    0.00
   9.750   24.71    2.10   -2.00   0.000   0.143   0.000    0.00
   9.800   24.25    1.96   -1.65   0.000   0.143   0.000    0.00
   9.850   24.57    1.84   -1.67   0.000   0.143   0.000    0.00
   9.900   24.62    1.62   -2.89   0.000   0.143   0.000    0.00
   9.950   24.50    0.33   -2.92   0.000   0.143   0.000    0.00
  10.000   24.71   -0.39   -2.90   0.000   0.143   0.000    0.00
  10.050   24.97    0.34   -2.77   0.000   0.143   0.000    0.00
  10.100   25.38    1.11   -3.46   0.000   0.143   0.000    0.00
  10.150   25.56    1.73   -3.19   0.000   0.143   0.000    0.00
  10.200   24.80    1.96   -2.10   0.000   0.143   0.000    0.00
  10.250   24.90    2.06   -2.91   0.000   0.143   0.000    0.00
  10.300   25.12    2.11   -3.39   0.000   0.143   0.000    0.00
  10.350   24.52    4.14   -2.94   0.000   0.143   0.000    0.00
  10.400   23.67    5.01   -3.26   0.000   0.143   0.000    0.00
  10.450   23.75    5.48   -2.91   0.000   0.143   0.000    0.00
  10.500   24.19    4.90   -3.05   0.000   0.143   0.000    0.00
  10.550   24.75    4.50   -2.51   0.000   0.143   0.000    0.00
  10.600   24.87    3.83   -2.48   0.000   0.143   0.000    0.00
  10.650   25.25    5.34   -2.62   0.000   0.143   0.000    0.00
  10.700   25.51    6.30   -2.13   0.000   0.143   0.000    0.00
  10.750   25.38    6.43   -1.84   0.000   0.143   0.000    0.00
  10.800   24.80    5.34   -1.46   0.000   0.143   0.000    0.00
  10.850   24.44    5.11   -1.34   0.000   0.143   0.000    0.00
  10.900   24.47    4.65   -1.26   0.000   0.143   0.000    0.00
  10.950   24.35    3.79   -0.91   0.000   0.143   0.000    0.00
  11.000   24.09    3.73   -1.22   0.000   0.143   0.000    0.00
  11.050   24.10    2.64   -0.67   0.000   0.143   0.000    0.00
  11.100   23.43    3.50   -0.79   0.000   0.143   0.000    0.00
  11.150   23.97    2.64   -1.24   0.000   0.143   0.000    0.00
  11.200   24.02    1.48   -1.49   0.000   0.143   0.000    0.00
  11.250   23.70    0.86   -1.21   0.000   0.143   0.000    0.00
  11.300   23.16   -0.18   -0.87   0.000   0.143   0.000    0.00
  11.350   23.58   -0.52   -1.12   0.000   0.143   0.000    0.00
  11.400   23.03   -2.98   -1.19   0.000   0.143   0.000    0.00
  11.450   23.20   -4.86   -1.43   0.000   0.143   0.000    0.00
  11.500   22.88   -3.85   -1.25   0.000   0.143   0.000    0.00
  11.550   23.62   -1.91   -1.91   0.000   0.143   0.000    0.00
  11.600   24.34   -3.04   -1.35   0.000   0.143   0.000    0.00
  11.650   24.25   -1.27   -1.29   0.000   0.143   0.000    0.00
  11.700   23.49   -1.40   -0.94   0.000   0.143   0.000    0.00
  11.750   23.26    1.09   -0.27   0.000   0.143   0.000    0.00
  11.800   22.83    2.76   -0.47   0.000   0.143   0.000    0.00
  11.850   22.73    0.65    0.23   0.000   0.143   0.000    0.00
  11.900   23.86   -1.58    0.08   0.000   0.143   0.000    0.00
  11.950   24.25   -2.62    0.05   0.000   0.143   0.000    0.00
  12.000   24.12   -0.95   -0.51   0.000   0.143   0.000    0.00
  12.050   23.39   -0.14   -0.16   0.000   0.143   0.000    0.00
  12.100   23.51   -0.54   -0.54   0.000   0.143   0.000    0.00
  12.150   24.00   -0.80   -1.37   0.000   0.143   0.000    0.00
  12.200   24.29    0.10   -1.22   0.000   0.143   0.000    0.00
  12.250   24.20   -0.91   -2.14   0.000   0.143   0.000    0.00
  12.300   24.38   -1.73   -2.60   0.000   0.143   0.000    0.00
  12.350   24.25   -2.03   -2.70   0.000   0.143   0.000    0.00
  12.400   23.88   -1.51   -2.29   0.000   0.143   0.000    0.00
  12.450   23.76   -1.79   -2.06   0.000   0.143   0.000    0.00
  12.500   23.85   -1.14   -1.67   0.000   0.143   0.000    0.00
  12.550   24.01    0.35   -2.01   0.000   0.143   0.000    0.00
  12.600   23.55    1.38   -1.38   0.000   0.143   0.000    0.00
  12.650   23.35   -1.18   -2.60   0.000   0.143   0.000    0.00
  12.700   23.06   -0.92   -3.03   0.000   0.143   0.000    0.00
  12.750   22.55    1.10   -3.33   0.000   0.143   0.000    0.00
  12.800   22.60   -0.03   -2.93   0.000   0.143   0.000    0.00
  12.850   22.96    0.27   -3.33   0.000   0.143   0.000    0.00
  12.900   23.14    0.26   -3.45   0.000   0.143   0.000    0.00
  12.950   23.63   -1.60   -3.32   0.000   0.143   0.000    0.00
  13.000   24.26   -2.81   -3.06   0.000   0.143   0.000    0.00
  13.050   24.97   -0.88   -3.05   0.000   0.143   0.000    0.00
  13.100   25.17   -0.85   -2.80   0.000   0.143   0.000    0.00
  13.150   24.84   -2.78   -2.91   0.000   0.143   0.000    0.00
  13.200   24.26   -3.88   -2.55   0.000   0.143   0.000    0.00
  13.250   24.29   -4.86   -2.31   0.000   0.143   0.000    0.00
  13.300   24.53   -3.23   -1.84   0.000   0.143   0.000    0.00
  13.350   24.00   -5.07   -1.30   0.000   0.143   0.000    0.00
  13.400   23.89   -3.77   -1.03   0.000   0.143   0.000    0.00
  13.450   24.89   -1.71   -1.44   0.000   0.143   0.000    0.00
  13.500   24.66   -0.58   -1.90   0.000   0.143   0.000    0.00
  13.550   23.99   -1.55   -1.34   0.000   0.143   0.000    0.00
  13.600   23.67   -0.58   -0.82   0.000   0.143   0.000    0.00
  13.650   24.07   -0.58   -0.93   0.000   0.143   0.000    0.00
  13.700   24.44    1.60   -0.18   0.000   0.143   0.000    0.00
  13.750   24.20    1.27   -0.27   0.000   0.143   0.000    0.00
  13.800   24.28    2.34    0.20   0.000   0.143   0.000    0.00
  13.850   24.18    3.53   -0.10   0.000   0.143   0.000    0.00
  13.900   24.34    3.03   -0.63   0.000   0.143   0.000    0.00
  13.950   24.29    3.33   -1.06   0.000   0.143   0.000    0.00
  14.000   24.03    3.08    0.05   0.000   0.143   0.000    0.00
  14.050   24.08    2.83    0.73   0.000   0.143   0.000    0.00
  14.100   24.46    2.82   -0.22   0.000   0.143   0.000    0.00
  14.150   23.91    3.03   -0.18   0.000   0.143   0.000    0.00
  14.200   24.53    3.74   -0.35   0.000   0.143   0.000    0.00
  14.250   24.07    5.16    0.28   0.000   0.143   0.000    0.00
  14.300   24.73    4.94   -0.34   0.000   0.143   0.000    0.00
  14.350   24.53    4.29   -0.53   0.000   0.143   0.000    0.00
  14.400   23.86    4.51   -0.26   0.000   0.143   0.000    0.00
  14.450   22.96    3.42   -0.41   0.000   0.143   0.000    0.00
  14.500   23.40    1.08   -0.11   0.000   0.143   0.000    0.00
  14.550   23.61   -0.84   -0.06   0.000   0.143   0.000    0.00
  14.600   24.57   -1.37   -0.14   0.000   0.143   0.000    0.00
  14.650   23.97    1.50   -0.40   0.000   0.143   0.000    0.00
  14.700   23.60    2.26   -0.73   0.000   0.143   0.000    0.00
  14.750   23.73    2.89   -0.40   0.000   0.143   0.000    0.00
  14.800   23.72    3.55    0.39   0.000   0.143   0.000    0.00
  14.850   22.96    2.95    0.99   0.000   0.143   0.000    0.00
  14.900   22.88    3.00    1.11   0.000   0.143   0.000    0.00
  14.950   22.54    1.84    0.80   0.000   0.143   0.000    0.00
  15.000   22.60    1.52    0.67   0.000   0.143   0.000    0.00
  15.050   22.01    3.47    0.32   0.000   0.143   0.000    0.00
  15.100   22.32    2.61   -0.43   0.000   0.143   0.000    0.00
  15.150   22.25    3.83   -0.27   0.000   0.143   0.000    0.00
  15.200   22.44    2.79   -0.12   0.000   0.143   0.000    0.00
  15.250   22.48    2.78   -0.33   0.000   0.143   0.000    0.00
  15.300   22.24    3.48    0.33   0.000   0.143   0.000    0.00
  15.350   21.82    3.70    0.92   0.000   0.143   0.000    0.00
  15.400   21.71    3.56    1.37   0.000   0.143   0.000    0.00
  15.450   20.92    4.99    1.70   0.000   0.143   0.000    0.00
  15.500   20.48    5.14    2.27   0.000   0.143   0.000    0.00
  15.550   20.47    3.87    3.20   0.000   0.143   0.000    0.00
  15.600   20.87    4.85    3.18   0.000   0.143   0.000    0.00
  15.650   21.33    5.83    3.18   0.000   0.143   0.000    0.00
  15.700   21.27    5.03    3.20   0.000   0.143   0.000    0.00
  15.750   22.15    3.87    3.23   0.000   0.143   0.000    0.00
  15.800   21.98    3.87    3.06   0.000   0.143   0.000    0.00
  15.850   21.98    3.63    3.31   0.000   0.143   0.000    0.00
  15.900   21.87    3.25    3.43   0.000   0.143   0.000    0.00
  15.950   21.57    2.57    3.30   0.000   0.143   0.000    0.00
  16.000   21.16    2.27    3.75   0.000   0.143   0.000    0.00
  16.050   21.12   -0.60    3.83   0.000   0.143   0.000    0.00
  16.100   21.34    2.60    3.84   0.000   0.143   0.000    0.00
  16.150   21.47    1.82    2.55   0.000   0.143   0.000    0.00
  16.200   21.67    1.76    3.10   0.000   0.143   0.000    0.00
  16.250   21.88    2.20    3.40   0.000   0.143   0.000    0.00
  16.300   21.80    0.92    2.90   0.000   0.143   0.000    0.00
  16.350   21.33    1.86    3.37   0.000   0.143   0.000    0.00
  16.400   21.19    4.78    3.38   0.000   0.143   0.000    0.00
  16.450   21.80    1.76    2.73   0.000   0.143   0.000    0.00
  16.500   22.08    1.78    2.60   0.000   0.143   0.000    0.00
  16.550   21.86    3.46    3.31   0.000   0.143   0.000    0.00
  16.600   22.13    3.84    2.91   0.000   0.143   0.000    0.00
  16.650   21.47    4.55    2.85   0.000   0.143   0.000    0.00
  16.700   21.90    5.39    2.79   0.000   0.143   0.000    0.00
  16.750   22.28    5.12    1.92   0.000   0.143   0.000    0.00
  16.800   22.60    4.67    1.94   0.000   0.143   0.000    0.00
  16.850   22.33    4.67    1.16   0.000   0.143   0.000    0.00
  16.900   22.30    3.52    0.72   0.000   0.143   0.000    0.00
  16.950   22.66    3.69    0.04   0.000   0.143   0.000    0.00
  17.000   22.53    4.18   -1.32   0.000   0.143   0.000    0.00
  17.050   22.78    6.44   -1.88   0.000   0.143   0.000    0.00
  17.100   23.09    7.83   -0.88   0.000   0.143   0.000    0.00
  17.150   22.88    7.67    0.61   0.000   0.143   0.000    0.00
  17.200   22.49    6.11    0.44   0.000   0.143   0.000    0.00
  17.250   22.41    7.47    0.10   0.000   0.143   0.000    0.00
  17.300   22.33    7.44    0.16   0.000   0.143   0.000    0.00
  17.350   22.73    8.43   -0.37   0.000   0.143   0.000    0.00
  17.400   22.62    8.86   -0.73   0.000   0.143   0.000    0.00
  17.450   22.55    9.98   -0.72   0.000   0.143   0.000    0.00
  17.500   23.01   10.18   -0.43   0.000   0.143   0.000    0.00
  17.550   22.73   10.12   -0.13   0.000   0.143   0.000    0.00
  17.600   22.66    9.36   -0.81   0.000   0.143   0.000    0.00
  17.650   22.19   10.08   -1.03   0.000   0.143   0.000    0.00
  17.700   22.33    8.53   -0.88   0.000   0.143   0.000    0.00
  17.750   22.00    8.25   -0.85   0.000   0.143   0.000    0.00
  17.800   21.32    8.89   -1.15   0.000   0.143   0.000    0.00
  17.850   21.86    8.70   -0.56   0.000   0.143   0.000    0.00
  17.900   21.81    8.19   -0.65   0.000   0.143   0.000    0.00
  17.950   20.97    9.00    0.13   0.000   0.143   0.000    0.00
  18.000   20.84    5.39   -0.06   0.000   0.143   0.000    0.00
  18.050   20.62    3.28   -0.35   0.000   0.143   0.000    0.00
  18.100   20.82    2.64   -0.58   0.000   0.143   0.000    0.00
  18.150   20.93    2.82    0.48   0.000   0.143   0.000    0.00
  18.200   21.20    2.22    0.23   0.000   0.143   0.000    0.00
  18.250   21.02    1.81    0.03   0.000   0.143   0.000    0.00
  18.300   21.21    2.60   -0.22   0.000   0.143   0.000    0.00
  18.350   21.10    3.58    0.11   0.000   0.143   0.000    0.00
  18.400   21.15    4.69   -0.25   0.000   0.143   0.000    0.00
  18.450   20.91    2.36   -0.66   0.000   0.143   0.000    0.00
  18.500   21.11    1.95   -0.25   0.000   0.143   0.000    0.00
  18.550   21.48    1.30   -0.81   0.000   0.143   0.000    0.00
  18.600   22.15    0.26   -1.26   0.000   0.143   0.000    0.00
  18.650   22.56    0.75   -1.18   0.000   0.143   0.000    0.00
  18.700   22.16    0.53   -1.31   0.000   0.143   0.000    0.00
  18.750   22.05   -3.13    0.12   0.000   0.143   0.000    0.00
  18.800   21.55   -4.70   -0.62   0.000   0.143   0.000    0.00
  18.850   21.15   -1.20   -0.65   0.000   0.143   0.000    0.00
  18.900   20.88   -2.71   -0.05   0.000   0.143   0.000    0.00
  18.950   21.50   -0.86    0.38   0.000   0.143   0.000    0.00
  19.000   22.06   -0.53    0.16   0.000   0.143   0.000    0.00
  19.050   21.24   -0.05    0.18   0.000   0.143   0.000    0.00
  19.100   21.00    0.39    0.32   0.000   0.143   0.000    0.00
  19.150   21.68    1.04    0.17   0.000   0.143   0.000    0.00
  19.200   22.15    0.78    0.27   0.000   0.143   0.000    0.00
  19.250   23.17    1.44    0.39   0.000   0.143   0.000    0.00
  19.300   22.39    0.94    0.00   0.000   0.143   0.000    0.00
  19.350   21.90    0.34    0.42   0.000   0.143   0.000    0.00
  19.400   22.09   -0.41    0.93   0.000   0.143   0.000    0.00
  19.450   22.12   -0.93    0.30   0.000   0.143   0.000    0.00
  19.500   21.95    1.09    0.07   0.000   0.143   0.000    0.00
  19.550   22.06    0.93   -0.52   0.000   0.143   0.000    0.00
  19.600   21.63    2.47    0.11   0.000   0.143   0.000    0.00
  19.650   21.91    2.25   -0.09   0.000   0.143   0.000    0.00
  19.700   21.98    1.85   -0.67   0.000   0.143   0.000    0.00
  19.750   22.31    1.48   -0.64   0.000   0.143   0.000    0.00
  19.800   22.09    2.53   -0.24   0.000   0.143   0.000    0.00
  19.850   21.35    3.99    0.01   0.000   0.143   0.000    0.00
  19.900   21.37    4.62   -0.23   0.000   0.143   0.000    0.00
  19.950   22.07    4.93   -0.57   0.000   0.143   0.000    0.00
  20.000   21.38    3.11   -0.83   0.000   0.143   0.000    0.00
  20.050   21.67    2.66   -1.09   0.000   0.143   0.000    0.00
  20.100   21.94    1.67   -0.83   0.000   0.143   0.000    0.00
  20.150   21.98    2.28   -1.00   0.000   0.143   0.000    0.00
  20.200   21.75    2.04   -0.92   0.000   0.143   0.000    0.00
  20.250   22.10    2.79   -0.85   0.000   0.143   0.000    0.00
  20.300   21.90    1.33   -0.37   0.000   0.143   0.000    0.00
  20.350   22.51    1.47   -0.16   0.000   0.143   0.000    0.00
  20.400   22.68    2.15   -0.25   0.000   0.143   0.000    0.00
  20.450   22.50    2.11   -0.58   0.000   0.143   0.000    0.00
  20.500   22.54    1.22   -0.33   0.000   0.143   0.000    0.00
  20.550   22.52    1.69   -0.65   0.000   0.143   0.000    0.00
  20.600   22.59    0.89   -0.06   0.000   0.143   0.000    0.00
  20.650   22.49    1.43    0.10   0.000   0.143   0.000    0.00
  20.700   22.08    2.47    0.03   0.000   0.143   0.000    0.00
  20.750   22.55    3.33    0.62   0.000   0.143   0.000    0.00
  20.800   23.23    2.55    1.22   0.000   0.143   0.000    0.00
  20.850   24.39    1.70    0.90   0.000   0.143   0.000    0.00
  20.900   24.10    2.23    1.00   0.000   0.143   0.000    0.00
  20.950   22.86    3.44    1.27   0.000   0.143   0.000    0.00
  21.000   22.70    4.93    1.30   0.000   0.143   0.000    0.00
  21.050   22.80    3.08    1.08   0.000   0.143   0.000    0.00
  21.100   22.57    2.11    0.89   0.000   0.143   0.000    0.00
  21.150   22.94    2.85    0.92   0.000   0.143   0.000    0.00
  21.200   23.04    2.86    1.28   0.000   0.143   0.000    0.00
  21.250   23.26    4.47    1.48   0.000   0.143   0.000    0.00
  21.300   22.88    5.68    1.64   0.000   0.143   0.000    0.00
  21.350   22.99    3.63    1.68   0.000   0.143   0.000    0.00
  21.400   22.72    4.46    1.78   0.000   0.143   0.000    0.00
  21.450   22.73    5.11    1.14   0.000   0.143   0.000    0.00
  21.500   22.78    5.56    0.82   0.000   0.143   0.000    0.00
  21.550   23.24    5.07    2.07   0.000   0.143   0.000    0.00
  21.600   23.77    4.72    2.14   0.000   0.143   0.000    0.00
  21.650   23.18    5.22    1.72   0.000   0.143   0.000    0.00
  21.700   23.27    5.05    1.57   0.000   0.143   0.000    0.00
  21.750   23.01    4.60    2.20   0.000   0.143   0.000    0.00
  21.800   22.90    5.38    1.93   0.000   0.143   0.000    0.00
  21.850   23.22    5.39    2.24   0.000   0.143   0.000    0.00
  21.900   22.94    6.80    2.16   0.000   0.143   0.000    0.00
  21.950   22.58    5.59    2.50   0.000   0.143   0.000    0.00
  22.000   23.02    5.41    1.73   0.000   0.143   0.000    0.00
  22.050   23.21    5.52    1.88   0.000   0.143   0.000    0.00
  22.100   22.67    6.38    1.91   0.000   0.143   0.000    0.00
  22.150   22.37    7.38    0.63   0.000   0.143   0.000    0.00
  22.200   22.37    8.34    0.32   0.000   0.143   0.000    0.00
  22.250   22.09    9.10    0.73   0.000   0.143   0.000    0.00
  22.300   21.34    8.28    0.19   0.000   0.143   0.000    0.00
  22.350   20.70    9.23   -0.26   0.000   0.143   0.000    0.00
  22.400   20.77    6.94   -0.15   0.000   0.143   0.000    0.00
  22.450   20.58    6.70   -0.68   0.000   0.143   0.000    0.00
  22.500   20.50    6.01   -0.30   0.000   0.143   0.000    0.00
  22.550   20.73    4.99   -0.01   0.000   0.143   0.000    0.00
  22.600   20.69    4.62   -0.13   0.000   0.143   0.000    0.00
  22.650   20.62    3.32   -0.85   0.000   0.143   0.000    0.00
  22.700   20.64    0.88   -0.10   0.000   0.143   0.000    0.00
  22.750   20.27    0.43   -0.71   0.000   0.143   0.000    0.00