! This hub-height wind-speed file was generated by TurbSim (v1.06.00, 21-Sep-2012) on 06-Dec-2015 at 18:55:18.
!
! The requested statistics for this data were:
!    Mean Total Wind Speed =   19.000 m/s
!
!   Time  HorSpd  WndDir  VerSpd  HorShr  VerShr  LnVShr  GstSpd
!  (sec)   (m/s)   (deg)   (m/s)     (-)     (-)     (-)   (m/s)
   0.000   25.66    2.24   -2.53   0.000   0.143   0.000    0.00
   0.050   25.35    1.37   -2.18   0.000   0.143   0.000    0.00
   0.100   24.94    1.09   -2.11   0.000   0.143   0.000    0.00
   0.150   25.89    2.80   -1.77   0.000   0.143   0.000    0.00
   0.200   25.81    2.75   -1.61   0.000   0.143   0.000    0.00
   0.250   25.60    3.55   -1.45   0.000   0.143   0.000    0.00
   0.300   25.18    3.27   -1.05   0.000   0.143   0.000    0.00
   0.350   25.15    2.84   -1.25   0.000   0.143   0.000    0.00
   0.400   25.26    2.12   -0.81   0.000   0.143   0.000    0.00
   0.450   25.54    2.90   -0.79   0.000   0.143   0.000    0.00
   0.500   25.10    3.04   -1.07   0.000   0.143   0.000    0.00
   0.550   24.65    1.75   -1.25   0.000   0.143   0.000    0.00
   0.600   24.78    0.88   -1.16   0.000   0.143   0.000    0.00
   0.650   24.93   -0.17   -1.25   0.000   0.143   0.000    0.00
   0.700   24.91    0.55   -1.56   0.000   0.143   0.000    0.00
   0.750   24.97    1.15   -1.12   0.000   0.143   0.000    0.00
   0.800   25.10    1.20   -0.44   0.000   0.143   0.000    0.00
   0.850   24.85    1.25   -1.35   0.000   0.143   0.000    0.00
   0.900   25.18    1.12   -2.35   0.000   0.143   0.000    0.00
   0.950   25.34    1.40   -2.73   0.000   0.143   0.000    0.00
   1.000   24.59    0.66   -3.08   0.000   0.143   0.000    0.00
   1.050   24.05    2.22   -3.03   0.000   0.143   0.000    0.00
   1.100   23.97    1.83   -2.85   0.000   0.143   0.000    0.00
   1.150   23.84    3.43   -2.41   0.000   0.143   0.000    0.00
   1.200   23.06    3.91   -2.69   0.000   0.143   0.000    0.00
   1.250   23.26    3.61   -2.45   0.000   0.143   0.000    0.00
   1.300   23.40    4.79   -2.57   0.000   0.143   0.000    0.00
   1.350   23.20    4.47   -2.22   0.000   0.143   0.000    0.00
   1.400   23.73    4.92   -2.51   0.000   0.143   0.000    0.00
   1.450   24.14    4.52   -3.09   0.000   0.143   0.000    0.00
   1.500   24.38    4.56   -2.95   0.000   0.143   0.000    0.00
   1.550   24.54    3.99   -2.50   0.000   0.143   0.000    0.00
   1.600   24.38    3.34   -3.00   0.000   0.143   0.000    0.00
   1.650   24.66    4.04   -2.91   0.000   0.143   0.000    0.00
   1.700   24.63    4.80   -2.92   0.000   0.143   0.000    0.00
   1.750   24.41    4.61   -1.79   0.000   0.143   0.000    0.00
   1.800   24.42    3.81   -1.82   0.000   0.143   0.000    0.00
   1.850   24.17    3.69   -2.36   0.000   0.143   0.000    0.00
   1.900   24.55    2.17   -2.12   0.000   0.143   0.000    0.00
   1.950   24.29    2.53   -2.46   0.000   0.143   0.000    0.00
   2.000   23.96    4.10   -2.69   0.000   0.143   0.000    0.00
   2.050   23.85    4.40   -1.78   0.000   0.143   0.000    0.00
   2.100   23.69    2.97   -2.14   0.000   0.143   0.000    0.00
   2.150   23.11    2.44   -2.04   0.000   0.143   0.000    0.00
   2.200   22.56    4.00   -2.33   0.000   0.143   0.000    0.00
   2.250   23.31    4.53   -1.69   0.000   0.143   0.000    0.00
   2.300   23.88    3.23   -1.76   0.000   0.143   0.000    0.00
   2.350   23.97    4.42   -1.97   0.000   0.143   0.000    0.00
   2.400   23.82    4.28   -2.48   0.000   0.143   0.000    0.00
   2.450   24.06    3.13   -3.02   0.000   0.143   0.000    0.00
   2.500   24.61    3.27   -3.31   0.000   0.143   0.000    0.00
   2.550   24.15    3.05   -3.27   0.000   0.143   0.000    0.00
   2.600   23.62    2.97   -3.93   0.000   0.143   0.000    0.00
   2.650   23.22    3.12   -4.10   0.000   0.143   0.000    0.00
   2.700   23.24    4.30   -3.45   0.000   0.143   0.000    0.00
   2.750   23.55    6.46   -3.42   0.000   0.143   0.000    0.00
   2.800   24.30    6.98   -3.42   0.000   0.143   0.000    0.00
   2.850   23.75    6.06   -2.89   0.000   0.143   0.000    0.00
   2.900   24.07    5.26   -2.87   0.000   0.143   0.000    0.00
   2.950   23.83    3.92   -2.50   0.000   0.143   0.000    0.00
   3.000   23.65    4.61   -2.58   0.000   0.143   0.000    0.00
   3.050   23.67    4.41   -2.59   0.000   0.143   0.000    0.00
   3.100   23.09    3.41   -2.19   0.000   0.143   0.000    0.00
   3.150   23.27    3.04   -1.73   0.000   0.143   0.000    0.00
   3.200   22.99    3.33   -1.32   0.000   0.143   0.000    0.00
   3.250   22.92    3.84   -1.05   0.000   0.143   0.000    0.00
   3.300   23.24    4.33   -1.65   0.000   0.143   0.000    0.00
   3.350   22.63    3.53   -1.57   0.000   0.143   0.000    0.00
   3.400   22.51    2.01   -1.73   0.000   0.143   0.000    0.00
   3.450   23.10    1.89   -1.57   0.000   0.143   0.000    0.00
   3.500   22.74    1.57   -1.62   0.000   0.143   0.000    0.00
   3.550   22.39   -1.73   -1.69   0.000   0.143   0.000    0.00
   3.600   22.36   -1.57   -1.79   0.000   0.143   0.000    0.00
   3.650   23.14   -0.06   -1.70   0.000   0.143   0.000    0.00
   3.700   22.45    1.71   -1.74   0.000   0.143   0.000    0.00
   3.750   22.71    2.85   -1.89   0.000   0.143   0.000    0.00
   3.800   23.10    4.46   -2.18   0.000   0.143   0.000    0.00
   3.850   22.58    5.29   -2.12   0.000   0.143   0.000    0.00
   3.900   22.50    3.97   -2.11   0.000   0.143   0.000    0.00
   3.950   22.26    4.75   -2.41   0.000   0.143   0.000    0.00
   4.000   21.23    5.08   -2.39   0.000   0.143   0.000    0.00
   4.050   21.29    3.04   -2.87   0.000   0.143   0.000    0.00
   4.100   21.53    1.60   -3.29   0.000   0.143   0.000    0.00
   4.150   22.24    2.64   -3.53   0.000   0.143   0.000    0.00
   4.200   22.27    2.27   -3.75   0.000   0.143   0.000    0.00
   4.250   21.88    3.51   -3.91   0.000   0.143   0.000    0.00
   4.300   21.96    2.59   -3.33   0.000   0.143   0.000    0.00
   4.350   21.68    3.67   -2.91   0.000   0.143   0.000    0.00
   4.400   21.91    4.49   -2.47   0.000   0.143   0.000    0.00
   4.450   22.47    6.41   -2.26   0.000   0.143   0.000    0.00
   4.500   22.59    6.51   -2.16   0.000   0.143   0.000    0.00
   4.550   22.10    5.41   -1.92   0.000   0.143   0.000    0.00
   4.600   21.68    7.64   -1.92   0.000   0.143   0.000    0.00
   4.650   21.27    8.06   -1.40   0.000   0.143   0.000    0.00
   4.700   21.66    8.99   -1.31   0.000   0.143   0.000    0.00
   4.750   21.27    6.91   -0.99   0.000   0.143   0.000    0.00
   4.800   21.49    6.87   -1.29   0.000   0.143   0.000    0.00
   4.850   21.57    6.41   -0.99   0.000   0.143   0.000    0.00
   4.900   20.68    3.93   -0.49   0.000   0.143   0.000    0.00
   4.950   20.42    5.47   -0.65   0.000   0.143   0.000    0.00
   5.000   20.56    7.15   -0.50   0.000   0.143   0.000    0.00
   5.050   20.35    7.08   -1.18   0.000   0.143   0.000    0.00
   5.100   20.37    5.90   -1.11   0.000   0.143   0.000    0.00
   5.150   19.91    5.06   -1.38   0.000   0.143   0.000    0.00
   5.200   20.14    6.65   -1.42   0.000   0.143   0.000    0.00
   5.250   19.96    5.84   -1.44   0.000   0.143   0.000    0.00
   5.300   20.58    4.88   -1.64   0.000   0.143   0.000    0.00
   5.350   20.89    4.70   -1.46   0.000   0.143   0.000    0.00
   5.400   21.18    3.60   -1.60   0.000   0.143   0.000    0.00
   5.450   21.33    3.67   -1.97   0.000   0.143   0.000    0.00
   5.500   21.34    1.50   -1.99   0.000   0.143   0.000    0.00
   5.550   21.60    1.60   -2.55   0.000   0.143   0.000    0.00
   5.600   22.35    0.96   -2.85   0.000   0.143   0.000    0.00
   5.650   22.17    0.46   -3.18   0.000   0.143   0.000    0.00
   5.700   22.51    2.24   -2.64   0.000   0.143   0.000    0.00
   5.750   22.44    3.13   -2.07   0.000   0.143   0.000    0.00
   5.800   21.97    4.12   -2.66   0.000   0.143   0.000    0.00
   5.850   21.91    4.17   -2.61   0.000   0.143   0.000    0.00
   5.900   22.31    3.47   -2.92   0.000   0.143   0.000    0.00
   5.950   22.41    2.88   -2.04   0.000   0.143   0.000    0.00
   6.000   22.89    3.63   -2.05   0.000   0.143   0.000    0.00
   6.050   22.95    3.53   -2.09   0.000   0.143   0.000    0.00
   6.100   22.63    3.75   -1.99   0.000   0.143   0.000    0.00
   6.150   22.75    4.99   -2.14   0.000   0.143   0.000    0.00
   6.200   22.66    4.79   -2.34   0.000   0.143   0.000    0.00
   6.250   22.83    1.45   -2.24   0.000   0.143   0.000    0.00
   6.300   22.88    1.23   -2.29   0.000   0.143   0.000    0.00
   6.350   22.92   -0.24   -2.27   0.000   0.143   0.000    0.00
   6.400   22.81    1.09   -2.11   0.000   0.143   0.000    0.00
   6.450   22.96    1.26   -1.85   0.000   0.143   0.000    0.00
   6.500   23.01    0.56   -1.95   0.000   0.143   0.000    0.00
   6.550   22.84    1.14   -2.23   0.000   0.143   0.000    0.00
   6.600   22.91    1.84   -2.36   0.000   0.143   0.000    0.00
   6.650   23.17   -0.35   -2.10   0.000   0.143   0.000    0.00
   6.700   23.58   -1.43   -1.88   0.000   0.143   0.000    0.00
   6.750   24.09   -2.11   -1.26   0.000   0.143   0.000    0.00
   6.800   23.53   -2.72   -0.90   0.000   0.143   0.000    0.00
   6.850   23.73   -3.55   -0.72   0.000   0.143   0.000    0.00
   6.900   22.98   -2.28   -1.11   0.000   0.143   0.000    0.00
   6.950   22.76   -2.97   -0.89   0.000   0.143   0.000    0.00
   7.000   22.79   -1.21   -0.78   0.000   0.143   0.000    0.00
   7.050   22.89    0.64   -0.30   0.000   0.143   0.000    0.00
   7.100   22.97   -1.13   -1.49   0.000   0.143   0.000    0.00
   7.150   22.61   -1.37   -1.27   0.000   0.143   0.000    0.00
   7.200   22.52   -0.85   -1.08   0.000   0.143   0.000    0.00
   7.250   22.62    1.18   -1.63   0.000   0.143   0.000    0.00
   7.300   22.57    2.84   -1.70   0.000   0.143   0.000    0.00
   7.350   22.07    2.01   -2.23   0.000   0.143   0.000    0.00
   7.400   22.72    3.73   -2.28   0.000   0.143   0.000    0.00
   7.450   23.01    2.85   -2.58   0.000   0.143   0.000    0.00
   7.500   23.18    0.87   -1.18   0.000   0.143   0.000    0.00
   7.550   23.81    1.05   -1.16   0.000   0.143   0.000    0.00
   7.600   23.72    1.96   -1.23   0.000   0.143   0.000    0.00
   7.650   23.62    1.18   -1.40   0.000   0.143   0.000    0.00
   7.700   23.25    2.37   -0.66   0.000   0.143   0.000    0.00
   7.750   23.53    2.69   -0.76   0.000   0.143   0.000    0.00
   7.800   23.22    1.49   -1.06   0.000   0.143   0.000    0.00
   7.850   23.24    1.38   -0.86   0.000   0.143   0.000    0.00
   7.900   23.31    0.84   -1.44   0.000   0.143   0.000    0.00
   7.950   22.64    1.79   -1.19   0.000   0.143   0.000    0.00
   8.000   22.54    3.34   -1.82   0.000   0.143   0.000    0.00
   8.050   22.86    4.20   -0.92   0.000   0.143   0.000    0.00
   8.100   22.96    3.44   -0.44   0.000   0.143   0.000    0.00
   8.150   22.60    2.74   -1.34   0.000   0.143   0.000    0.00
   8.200   22.13    3.85   -1.50   0.000   0.143   0.000    0.00
   8.250   22.16    5.11   -1.70   0.000   0.143   0.000    0.00
   8.300   22.27    5.58   -2.43   0.000   0.143   0.000    0.00
   8.350   22.24    4.93   -2.53   0.000   0.143   0.000    0.00
   8.400   22.22    3.67   -2.74   0.000   0.143   0.000    0.00
   8.450   22.21    3.81   -2.11   0.000   0.143   0.000    0.00
   8.500   22.97    5.25   -1.53   0.000   0.143   0.000    0.00
   8.550   23.24    5.28   -2.04   0.000   0.143   0.000    0.00
   8.600   22.93    4.59   -2.07   0.000   0.143   0.000    0.00
   8.650   23.06    4.80   -2.31   0.000   0.143   0.000    0.00
   8.700   22.69    4.40   -2.16   0.000   0.143   0.000    0.00
   8.750   23.32    4.71   -1.68   0.000   0.143   0.000    0.00
   8.800   22.82    5.08   -1.67   0.000   0.143   0.000    0.00
   8.850   22.35    5.45   -1.41   0.000   0.143   0.000    0.00
   8.900   22.10    3.36   -1.19   0.000   0.143   0.000    0.00
   8.950   21.82    2.86   -1.35   0.000   0.143   0.000    0.00
   9.000   21.93    1.04   -1.72   0.000   0.143   0.000    0.00
   9.050   22.55    0.59   -2.46   0.000   0.143   0.000    0.00
   9.100   22.69    1.84   -2.14   0.000   0.143   0.000    0.00
   9.150   22.60    1.71   -1.88   0.000   0.143   0.000    0.00
   9.200   22.79    0.67   -1.20   0.000   0.143   0.000    0.00
   9.250   23.06    1.85   -1.24   0.000   0.143   0.000    0.00
   9.300   22.94    1.65   -1.69   0.000   0.143   0.000    0.00
   9.350   22.61    1.35   -1.86   0.000   0.143   0.000    0.00
   9.400   22.64    2.38   -0.75   0.000   0.143   0.000    0.00
   9.450   22.73    2.70   -0.69   0.000   0.143   0.000    0.00
   9.500   23.01    4.22   -0.92   0.000   0.143   0.000    0.00
   9.550   22.33    3.36   -0.14   0.000   0.143   0.000    0.00
   9.600   22.51    1.28   -0.79   0.000   0.143   0.000    0.00
   9.650   22.45    3.24   -1.69   0.000   0.143   0.000    0.00
   9.700   22.46    3.29   -1.41   0.000   0.143   0.000    0.00
   9.750   22.45    2.21   -1.86   0.000   0.143   0.000    0.00
   9.800   22.04    2.08   -1.55   0.000   0.143   0.000    0.00
   9.850   22.32    1.95   -1.57   0.000   0.143   0.000    0.00
   9.900   22.37    1.74   -2.63   0.000   0.143   0.000    0.00
   9.950   22.26    0.50   -2.66   0.000   0.143   0.000    0.00
  10.000   22.44   -0.19   -2.65   0.000   0.143   0.000    0.00
  10.050   22.67    0.51   -2.53   0.000   0.143   0.000    0.00
  10.100   23.02    1.25   -3.13   0.000   0.143   0.000    0.00
  10.150   23.18    1.84   -2.90   0.000   0.143   0.000    0.00
  10.200   22.52    2.07   -1.94   0.000   0.143   0.000    0.00
  10.250   22.61    2.17   -2.65   0.000   0.143   0.000    0.00
  10.300   22.80    2.22   -3.07   0.000   0.143   0.000    0.00
  10.350   22.27    4.17   -2.68   0.000   0.143   0.000    0.00
  10.400   21.53    5.01   -2.96   0.000   0.143   0.000    0.00
  10.450   21.60    5.46   -2.66   0.000   0.143   0.000    0.00
  10.500   21.99    4.90   -2.78   0.000   0.143   0.000    0.00
  10.550   22.47    4.52   -2.30   0.000   0.143   0.000    0.00
  10.600   22.58    3.87   -2.27   0.000   0.143   0.000    0.00
  10.650   22.91    5.33   -2.40   0.000   0.143   0.000    0.00
  10.700   23.14    6.25   -1.96   0.000   0.143   0.000    0.00
  10.750   23.02    6.37   -1.71   0.000   0.143   0.000    0.00
  10.800   22.52    5.32   -1.37   0.000   0.143   0.000    0.00
  10.850   22.21    5.09   -1.27   0.000   0.143   0.000    0.00
  10.900   22.23    4.65   -1.19   0.000   0.143   0.000    0.00
  10.950   22.12    3.83   -0.89   0.000   0.143   0.000    0.00
  11.000   21.89    3.77   -1.16   0.000   0.143   0.000    0.00
  11.050   21.90    2.72   -0.68   0.000   0.143   0.000    0.00
  11.100   21.32    3.55   -0.79   0.000   0.143   0.000    0.00
  11.150   21.78    2.72   -1.18   0.000   0.143   0.000    0.00
  11.200   21.83    1.59   -1.39   0.000   0.143   0.000    0.00
  11.250   21.55    1.00   -1.15   0.000   0.143   0.000    0.00
  11.300   21.07    0.00   -0.86   0.000   0.143   0.000    0.00
  11.350   21.44   -0.33   -1.07   0.000   0.143   0.000    0.00
  11.400   20.96   -2.70   -1.13   0.000   0.143   0.000    0.00
  11.450   21.10   -4.51   -1.34   0.000   0.143   0.000    0.00
  11.500   20.82   -3.53   -1.19   0.000   0.143   0.000    0.00
  11.550   21.47   -1.68   -1.76   0.000   0.143   0.000    0.00
  11.600   22.10   -2.77   -1.26   0.000   0.143   0.000    0.00
  11.650   22.03   -1.07   -1.21   0.000   0.143   0.000    0.00
  11.700   21.36   -1.18   -0.90   0.000   0.143   0.000    0.00
  11.750   21.16    1.22   -0.32   0.000   0.143   0.000    0.00
  11.800   20.79    2.82   -0.49   0.000   0.143   0.000    0.00
  11.850   20.70    0.79    0.12   0.000   0.143   0.000    0.00
  11.900   21.68   -1.37   -0.01   0.000   0.143   0.000    0.00
  11.950   22.03   -2.37   -0.04   0.000   0.143   0.000    0.00
  12.000   21.91   -0.76   -0.53   0.000   0.143   0.000    0.00
  12.050   21.27    0.03   -0.22   0.000   0.143   0.000    0.00
  12.100   21.38   -0.36   -0.56   0.000   0.143   0.000    0.00
  12.150   21.81   -0.61   -1.28   0.000   0.143   0.000    0.00
  12.200   22.06    0.25   -1.14   0.000   0.143   0.000    0.00
  12.250   21.98   -0.73   -1.96   0.000   0.143   0.000    0.00
  12.300   22.13   -1.52   -2.36   0.000   0.143   0.000    0.00
  12.350   22.02   -1.81   -2.44   0.000   0.143   0.000    0.00
  12.400   21.69   -1.30   -2.09   0.000   0.143   0.000    0.00
  12.450   21.59   -1.57   -1.89   0.000   0.143   0.000    0.00
  12.500   21.67   -0.94   -1.54   0.000   0.143   0.000    0.00
  12.550   21.81    0.49   -1.84   0.000   0.143   0.000    0.00
  12.600   21.41    1.49   -1.29   0.000   0.143   0.000    0.00
  12.650   21.23   -0.97   -2.35   0.000   0.143   0.000    0.00
  12.700   20.98   -0.73   -2.73   0.000   0.143   0.000    0.00
  12.750   20.53    1.22   -3.00   0.000   0.143   0.000    0.00
  12.800   20.58    0.13   -2.64   0.000   0.143   0.000    0.00
  12.850   20.89    0.42   -2.99   0.000   0.143   0.000    0.00
  12.900   21.05    0.41   -3.10   0.000   0.143   0.000    0.00
  12.950   21.47   -1.39   -2.98   0.000   0.143   0.000    0.00
  13.000   22.03   -2.56   -2.75   0.000   0.143   0.000    0.00
  13.050   22.64   -0.70   -2.74   0.000   0.143   0.000    0.00
  13.100   22.82   -0.67   -2.51   0.000   0.143   0.000    0.00
  13.150   22.53   -2.53   -2.61   0.000   0.143   0.000    0.00
  13.200   22.02   -3.59   -2.29   0.000   0.143   0.000    0.00
  13.250   22.05   -4.53   -2.08   0.000   0.143   0.000    0.00
  13.300   22.26   -2.96   -1.67   0.000   0.143   0.000    0.00
  13.350   21.79   -4.72   -1.19   0.000   0.143   0.000    0.00
  13.400   21.69   -3.47   -0.95   0.000   0.143   0.000    0.00
  13.450   22.57   -1.50   -1.31   0.000   0.143   0.000    0.00
  13.500   22.38   -0.40   -1.71   0.000   0.143   0.000    0.00
  13.550   21.79   -1.33   -1.22   0.000   0.143   0.000    0.00
  13.600   21.51   -0.39   -0.76   0.000   0.143   0.000    0.00
  13.650   21.86   -0.39   -0.85   0.000   0.143   0.000    0.00
  13.700   22.18    1.70   -0.19   0.000   0.143   0.000    0.00
  13.750   21.97    1.39   -0.27   0.000   0.143   0.000    0.00
  13.800   22.05    2.43    0.14   0.000   0.143   0.000    0.00
  13.850   21.95    3.58   -0.12   0.000   0.143   0.000    0.00
  13.900   22.10    3.10   -0.58   0.000   0.143   0.000    0.00
  13.950   22.05    3.39   -0.95   0.000   0.143   0.000    0.00
  14.000   21.82    3.14    0.02   0.000   0.143   0.000    0.00
  14.050   21.87    2.91    0.62   0.000   0.143   0.000    0.00
  14.100   22.20    2.89   -0.21   0.000   0.143   0.000    0.00
  14.150   21.72    3.11   -0.18   0.000   0.143   0.000    0.00
  14.200   22.26    3.79   -0.32   0.000   0.143   0.000    0.00
  14.250   21.86    5.15    0.23   0.000   0.143   0.000    0.00
  14.300   22.43    4.95   -0.31   0.000   0.143   0.000    0.00
  14.350   22.25    4.32   -0.47   0.000   0.143   0.000    0.00
  14.400   21.67    4.53   -0.24   0.000   0.143   0.000    0.00
  14.450   20.88    3.48   -0.36   0.000   0.143   0.000    0.00
  14.500   21.27    1.23   -0.10   0.000   0.143   0.000    0.00
  14.550   21.45   -0.61   -0.05   0.000   0.143   0.000    0.00
  14.600   22.28   -1.14   -0.12   0.000   0.143   0.000    0.00
  14.650   21.76    1.63   -0.34   0.000   0.143   0.000    0.00
  14.700   21.44    2.37   -0.63   0.000   0.143   0.000    0.00
  14.750   21.55    2.98   -0.34   0.000   0.143   0.000    0.00
  14.800   21.55    3.61    0.35   0.000   0.143   0.000    0.00
  14.850   20.88    3.04    0.88   0.000   0.143   0.000    0.00
  14.900   20.81    3.09    0.98   0.000   0.143   0.000    0.00
  14.950   20.51    1.98    0.71   0.000   0.143   0.000    0.00
  15.000   20.56    1.67    0.60   0.000   0.143   0.000    0.00
  15.050   20.05    3.56    0.30   0.000   0.143   0.000    0.00
  15.100   20.32    2.73   -0.35   0.000   0.143   0.000    0.00
  15.150   20.26    3.90   -0.22   0.000   0.143   0.000    0.00
  15.200   20.42    2.90   -0.08   0.000   0.143   0.000    0.00
  15.250   20.45    2.89   -0.26   0.000   0.143   0.000    0.00
  15.300   20.25    3.57    0.32   0.000   0.143   0.000    0.00
  15.350   19.88    3.78    0.83   0.000   0.143   0.000    0.00
  15.400   19.78    3.65    1.23   0.000   0.143   0.000    0.00
  15.450   19.09    5.03    1.52   0.000   0.143   0.000    0.00
  15.500   18.70    5.17    2.02   0.000   0.143   0.000    0.00
  15.550   18.70    3.95    2.83   0.000   0.143   0.000    0.00
  15.600   19.05    4.90    2.82   0.000   0.143   0.000    0.00
  15.650   19.45    5.84    2.82   0.000   0.143   0.000    0.00
  15.700   19.40    5.07    2.84   0.000   0.143   0.000    0.00
  15.750   20.16    3.95    2.87   0.000   0.143   0.000    0.00
  15.800   20.02    3.95    2.73   0.000   0.143   0.000    0.00
  15.850   20.01    3.72    2.94   0.000   0.143   0.000    0.00
  15.900   19.92    3.36    3.05   0.000   0.143   0.000    0.00
  15.950   19.66    2.71    2.94   0.000   0.143   0.000    0.00
  16.000   19.29    2.43    3.33   0.000   0.143   0.000    0.00
  16.050   19.26   -0.33    3.40   0.000   0.143   0.000    0.00
  16.100   19.46    2.75    3.41   0.000   0.143   0.000    0.00
  16.150   19.57    1.99    2.29   0.000   0.143   0.000    0.00
  16.200   19.74    1.94    2.77   0.000   0.143   0.000    0.00
  16.250   19.93    2.36    3.03   0.000   0.143   0.000    0.00
  16.300   19.85    1.13    2.59   0.000   0.143   0.000    0.00
  16.350   19.45    2.03    3.00   0.000   0.143   0.000    0.00
  16.400   19.32    4.84    3.01   0.000   0.143   0.000    0.00
  16.450   19.85    1.94    2.44   0.000   0.143   0.000    0.00
  16.500   20.10    1.96    2.32   0.000   0.143   0.000    0.00
  16.550   19.91    3.57    2.95   0.000   0.143   0.000    0.00
  16.600   20.15    3.95    2.59   0.000   0.143   0.000    0.00
  16.650   19.57    4.63    2.53   0.000   0.143   0.000    0.00
  16.700   19.94    5.44    2.49   0.000   0.143   0.000    0.00
  16.750   20.27    5.17    1.73   0.000   0.143   0.000    0.00
  16.800   20.55    4.74    1.74   0.000   0.143   0.000    0.00
  16.850   20.32    4.74    1.06   0.000   0.143   0.000    0.00
  16.900   20.29    3.64    0.67   0.000   0.143   0.000    0.00
  16.950   20.60    3.81    0.07   0.000   0.143   0.000    0.00
  17.000   20.49    4.28   -1.12   0.000   0.143   0.000    0.00
  17.050   20.71    6.45   -1.61   0.000   0.143   0.000    0.00
  17.100   20.98    7.79   -0.74   0.000   0.143   0.000    0.00
  17.150   20.80    7.64    0.56   0.000   0.143   0.000    0.00
  17.200   20.46    6.13    0.42   0.000   0.143   0.000    0.00
  17.250   20.39    7.44    0.12   0.000   0.143   0.000    0.00
  17.300   20.32    7.41    0.17   0.000   0.143   0.000    0.00
  17.350   20.67    8.38   -0.30   0.000   0.143   0.000    0.00
  17.400   20.57    8.79   -0.62   0.000   0.143   0.000    0.00
  17.450   20.50    9.86   -0.61   0.000   0.143   0.000    0.00
  17.500   20.91   10.06   -0.36   0.000   0.143   0.000    0.00
  17.550   20.67   10.00   -0.10   0.000   0.143   0.000    0.00
  17.600   20.61    9.27   -0.69   0.000   0.143   0.000    0.00
  17.650   20.19    9.96   -0.88   0.000   0.143   0.000    0.00
  17.700   20.32    8.47   -0.76   0.000   0.143   0.000    0.00
  17.750   20.03    8.19   -0.73   0.000   0.143   0.000    0.00
  17.800   19.43    8.81   -1.00   0.000   0.143   0.000    0.00
  17.850   19.90    8.62   -0.48   0.000   0.143   0.000    0.00
  17.900   19.86    8.14   -0.56   0.000   0.143   0.000    0.00
  17.950   19.12    8.91    0.13   0.000   0.143   0.000    0.00
  18.000   19.01    5.44   -0.04   0.000   0.143   0.000    0.00
  18.050   18.82    3.43   -0.30   0.000   0.143   0.000    0.00
  18.100   18.99    2.80   -0.50   0.000   0.143   0.000    0.00
  18.150   19.08    2.98    0.42   0.000   0.143   0.000    0.00
  18.200   19.32    2.39    0.21   0.000   0.143   0.000    0.00
  18.250   19.16    2.00    0.03   0.000   0.143   0.000    0.00
  18.300   19.33    2.76   -0.19   0.000   0.143   0.000    0.00
  18.350   19.24    3.70    0.10   0.000   0.143   0.000    0.00
  18.400   19.28    4.76   -0.21   0.000   0.143   0.000    0.00
  18.450   19.07    2.53   -0.57   0.000   0.143   0.000    0.00
  18.500   19.24    2.13   -0.22   0.000   0.143   0.000    0.00
  18.550   19.56    1.50   -0.70   0.000   0.143   0.000    0.00
  18.600   20.15    0.49   -1.09   0.000   0.143   0.000    0.00
  18.650   20.51    0.97   -1.02   0.000   0.143   0.000    0.00
  18.700   20.15    0.75   -1.14   0.000   0.143   0.000    0.00
  18.750   20.05   -2.76    0.12   0.000   0.143   0.000    0.00
  18.800   19.61   -4.27   -0.53   0.000   0.143   0.000    0.00
  18.850   19.27   -0.90   -0.56   0.000   0.143   0.000    0.00
  18.900   19.03   -2.34   -0.04   0.000   0.143   0.000    0.00
  18.950   19.58   -0.58    0.34   0.000   0.143   0.000    0.00
  19.000   20.06   -0.27    0.15   0.000   0.143   0.000    0.00
  19.050   19.35    0.20    0.17   0.000   0.143   0.000    0.00
  19.100   19.14    0.63    0.28   0.000   0.143   0.000    0.00
  19.150   19.74    1.24    0.16   0.000   0.143   0.000    0.00
  19.200   20.15    0.99    0.25   0.000   0.143   0.000    0.00
  19.250   21.04    1.62    0.36   0.000   0.143   0.000    0.00
  19.300   20.36    1.14    0.01   0.000   0.143   0.000    0.00
  19.350   19.93    0.57    0.38   0.000   0.143   0.000    0.00
  19.400   20.09   -0.15    0.82   0.000   0.143   0.000    0.00
  19.450   20.12   -0.65    0.27   0.000   0.143   0.000    0.00
  19.500   19.97    1.29    0.07   0.000   0.143   0.000    0.00
  19.550   20.06    1.14   -0.44   0.000   0.143   0.000    0.00
  19.600   19.70    2.62    0.11   0.000   0.143   0.000    0.00
  19.650   19.94    2.41   -0.07   0.000   0.143   0.000    0.00
  19.700   20.00    2.02   -0.58   0.000   0.143   0.000    0.00
  19.750   20.28    1.67   -0.55   0.000   0.143   0.000    0.00
  19.800   20.10    2.69   -0.19   0.000   0.143   0.000    0.00
  19.850   19.45    4.09    0.02   0.000   0.143   0.000    0.00
  19.900   19.47    4.70   -0.19   0.000   0.143   0.000    0.00
  19.950   20.08    4.99   -0.48   0.000   0.143   0.000    0.00
  20.000   19.47    3.24   -0.72   0.000   0.143   0.000    0.00
  20.050   19.73    2.82   -0.94   0.000   0.143   0.000    0.00
  20.100   19.96    1.86   -0.71   0.000   0.143   0.000    0.00
  20.150   20.00    2.45   -0.86   0.000   0.143   0.000    0.00
  20.200   19.80    2.21   -0.79   0.000   0.143   0.000    0.00
  20.250   20.10    2.93   -0.73   0.000   0.143   0.000    0.00
  20.300   19.93    1.53   -0.30   0.000   0.143   0.000    0.00
  20.350   20.46    1.66   -0.12   0.000   0.143   0.000    0.00
  20.400   20.61    2.32   -0.19   0.000   0.143   0.000    0.00
  20.450   20.45    2.29   -0.49   0.000   0.143   0.000    0.00
  20.500   20.48    1.43   -0.26   0.000   0.143   0.000    0.00
  20.550   20.47    1.88   -0.54   0.000   0.143   0.000    0.00
  20.600   20.53    1.11   -0.02   0.000   0.143   0.000    0.00
  20.650   20.44    1.63    0.12   0.000   0.143   0.000    0.00
  20.700   20.08    2.63    0.06   0.000   0.143   0.000    0.00
  20.750   20.49    3.46    0.58   0.000   0.143   0.000    0.00
  20.800   21.09    2.71    1.10   0.000   0.143   0.000    0.00
  20.850   22.10    1.88    0.83   0.000   0.143   0.000    0.00
  20.900   21.85    2.40    0.92   0.000   0.143   0.000    0.00
  20.950   20.76    3.57    1.15   0.000   0.143   0.000    0.00
  21.000   20.63    5.00    1.18   0.000   0.143   0.000    0.00
  21.050   20.72    3.22    0.99   0.000   0.143   0.000    0.00
  21.100   20.51    2.30    0.82   0.000   0.143   0.000    0.00
  21.150   20.84    3.01    0.85   0.000   0.143   0.000    0.00
  21.200   20.92    3.01    1.17   0.000   0.143   0.000    0.00
  21.250   21.12    4.57    1.34   0.000   0.143   0.000    0.00
  21.300   20.78    5.74    1.48   0.000   0.143   0.000    0.00
  21.350   20.88    3.76    1.52   0.000   0.143   0.000    0.00
  21.400   20.64    4.56    1.61   0.000   0.143   0.000    0.00
  21.450   20.65    5.19    1.05   0.000   0.143   0.000    0.00
  21.500   20.69    5.63    0.77   0.000   0.143   0.000    0.00
  21.550   21.10    5.15    1.87   0.000   0.143   0.000    0.00
  21.600   21.56    4.81    1.92   0.000   0.143   0.000    0.00
  21.650   21.05    5.30    1.56   0.000   0.143   0.000    0.00
  21.700   21.12    5.14    1.43   0.000   0.143   0.000    0.00
  21.750   20.90    4.71    1.98   0.000   0.143   0.000    0.00
  21.800   20.80    5.46    1.74   0.000   0.143   0.000    0.00
  21.850   21.08    5.47    2.02   0.000   0.143   0.000    0.00
  21.900   20.83    6.83    1.94   0.000   0.143   0.000    0.00
  21.950   20.52    5.66    2.24   0.000   0.143   0.000    0.00
  22.000   20.90    5.49    1.56   0.000   0.143   0.000    0.00
  22.050   21.07    5.59    1.70   0.000   0.143   0.000    0.00
  22.100   20.60    6.42    1.72   0.000   0.143   0.000    0.00
  22.150   20.33    7.39    0.60   0.000   0.143   0.000    0.00
  22.200   20.33    8.31    0.33   0.000   0.143   0.000    0.00
  22.250   20.09    9.04    0.69   0.000   0.143   0.000    0.00
  22.300   19.44    8.25    0.21   0.000   0.143   0.000    0.00
  22.350   18.87    9.16   -0.19   0.000   0.143   0.000    0.00
  22.400   18.94    6.97   -0.09   0.000   0.143   0.000    0.00
  22.450   18.77    6.73   -0.55   0.000   0.143   0.000    0.00
  22.500   18.69    6.07   -0.22   0.000   0.143   0.000    0.00
  22.550   18.90    5.09    0.03   0.000   0.143   0.000    0.00
  22.600   18.86    4.74   -0.07   0.000   0.143   0.000    0.00
  22.650   18.80    3.48   -0.70   0.000   0.143   0.000    0.00
  22.700   18.81    1.14   -0.05   0.000   0.143   0.000    0.00
  22.750   18.49    0.72   -0.58   0.000   0.143   0.000    0.00