! This hub-height wind-speed file was generated by TurbSim (v1.06.00, 21-Sep-2012) on 06-Dec-2015 at 18:48:35.
!
! The requested statistics for this data were:
!    Mean Total Wind Speed =   10.000 m/s
!
!   Time  HorSpd  WndDir  VerSpd  HorShr  VerShr  LnVShr  GstSpd
!  (sec)   (m/s)   (deg)   (m/s)     (-)     (-)     (-)   (m/s)
   0.000   13.45    3.26   -1.38   0.000   0.143   0.000    0.00
   0.050   13.32    2.56   -1.23   0.000   0.143   0.000    0.00
   0.100   13.14    2.35   -1.21   0.000   0.143   0.000    0.00
   0.150   13.55    3.70   -1.06   0.000   0.143   0.000    0.00
   0.200   13.52    3.66   -0.99   0.000   0.143   0.000    0.00
   0.250   13.43    4.31   -0.92   0.000   0.143   0.000    0.00
   0.300   13.25    4.10   -0.76   0.000   0.143   0.000    0.00
   0.350   13.24    3.75   -0.85   0.000   0.143   0.000    0.00
   0.400   13.28    3.16   -0.66   0.000   0.143   0.000    0.00
   0.450   13.41    3.79   -0.65   0.000   0.143   0.000    0.00
   0.500   13.22    3.91   -0.78   0.000   0.143   0.000    0.00
   0.550   13.02    2.88   -0.86   0.000   0.143   0.000    0.00
   0.600   13.08    2.18   -0.82   0.000   0.143   0.000    0.00
   0.650   13.13    1.32   -0.86   0.000   0.143   0.000    0.00
   0.700   13.13    1.91   -1.00   0.000   0.143   0.000    0.00
   0.750   13.16    2.39   -0.81   0.000   0.143   0.000    0.00
   0.800   13.21    2.42   -0.52   0.000   0.143   0.000    0.00
   0.850   13.11    2.47   -0.92   0.000   0.143   0.000    0.00
   0.900   13.25    2.36   -1.35   0.000   0.143   0.000    0.00
   0.950   13.31    2.58   -1.51   0.000   0.143   0.000    0.00
   1.000   12.99    2.01   -1.67   0.000   0.143   0.000    0.00
   1.050   12.77    3.29   -1.65   0.000   0.143   0.000    0.00
   1.100   12.73    2.98   -1.58   0.000   0.143   0.000    0.00
   1.150   12.68    4.27   -1.39   0.000   0.143   0.000    0.00
   1.200   12.35    4.66   -1.52   0.000   0.143   0.000    0.00
   1.250   12.44    4.43   -1.42   0.000   0.143   0.000    0.00
   1.300   12.50    5.36   -1.48   0.000   0.143   0.000    0.00
   1.350   12.41    5.11   -1.33   0.000   0.143   0.000    0.00
   1.400   12.64    5.46   -1.45   0.000   0.143   0.000    0.00
   1.450   12.81    5.13   -1.70   0.000   0.143   0.000    0.00
   1.500   12.91    5.16   -1.64   0.000   0.143   0.000    0.00
   1.550   12.98    4.70   -1.45   0.000   0.143   0.000    0.00
   1.600   12.91    4.18   -1.66   0.000   0.143   0.000    0.00
   1.650   13.03    4.73   -1.62   0.000   0.143   0.000    0.00
   1.700   13.02    5.35   -1.63   0.000   0.143   0.000    0.00
   1.750   12.92    5.20   -1.15   0.000   0.143   0.000    0.00
   1.800   12.93    4.56   -1.17   0.000   0.143   0.000    0.00
   1.850   12.82    4.47   -1.40   0.000   0.143   0.000    0.00
   1.900   12.98    3.24   -1.30   0.000   0.143   0.000    0.00
   1.950   12.87    3.53   -1.44   0.000   0.143   0.000    0.00
   2.000   12.73    4.80   -1.55   0.000   0.143   0.000    0.00
   2.050   12.68    5.04   -1.16   0.000   0.143   0.000    0.00
   2.100   12.61    3.90   -1.32   0.000   0.143   0.000    0.00
   2.150   12.37    3.50   -1.28   0.000   0.143   0.000    0.00
   2.200   12.14    4.75   -1.41   0.000   0.143   0.000    0.00
   2.250   12.46    5.16   -1.13   0.000   0.143   0.000    0.00
   2.300   12.70    4.10   -1.16   0.000   0.143   0.000    0.00
   2.350   12.74    5.06   -1.25   0.000   0.143   0.000    0.00
   2.400   12.67    4.94   -1.47   0.000   0.143   0.000    0.00
   2.450   12.77    4.02   -1.70   0.000   0.143   0.000    0.00
   2.500   13.00    4.12   -1.82   0.000   0.143   0.000    0.00
   2.550   12.81    3.95   -1.81   0.000   0.143   0.000    0.00
   2.600   12.58    3.90   -2.09   0.000   0.143   0.000    0.00
   2.650   12.41    4.03   -2.17   0.000   0.143   0.000    0.00
   2.700   12.42    4.97   -1.90   0.000   0.143   0.000    0.00
   2.750   12.56    6.68   -1.88   0.000   0.143   0.000    0.00
   2.800   12.88    7.09   -1.87   0.000   0.143   0.000    0.00
   2.850   12.64    6.37   -1.65   0.000   0.143   0.000    0.00
   2.900   12.78    5.71   -1.64   0.000   0.143   0.000    0.00
   2.950   12.67    4.65   -1.49   0.000   0.143   0.000    0.00
   3.000   12.60    5.20   -1.52   0.000   0.143   0.000    0.00
   3.050   12.61    5.04   -1.52   0.000   0.143   0.000    0.00
   3.100   12.35    4.26   -1.36   0.000   0.143   0.000    0.00
   3.150   12.43    3.95   -1.16   0.000   0.143   0.000    0.00
   3.200   12.31    4.19   -0.99   0.000   0.143   0.000    0.00
   3.250   12.28    4.60   -0.87   0.000   0.143   0.000    0.00
   3.300   12.42    4.98   -1.13   0.000   0.143   0.000    0.00
   3.350   12.16    4.36   -1.10   0.000   0.143   0.000    0.00
   3.400   12.10    3.16   -1.17   0.000   0.143   0.000    0.00
   3.450   12.35    3.04   -1.09   0.000   0.143   0.000    0.00
   3.500   12.20    2.80   -1.12   0.000   0.143   0.000    0.00
   3.550   12.03    0.20   -1.15   0.000   0.143   0.000    0.00
   3.600   12.02    0.33   -1.19   0.000   0.143   0.000    0.00
   3.650   12.36    1.48   -1.15   0.000   0.143   0.000    0.00
   3.700   12.08    2.91   -1.17   0.000   0.143   0.000    0.00
   3.750   12.19    3.81   -1.24   0.000   0.143   0.000    0.00
   3.800   12.36    5.07   -1.35   0.000   0.143   0.000    0.00
   3.850   12.14    5.74   -1.34   0.000   0.143   0.000    0.00
   3.900   12.10    4.70   -1.33   0.000   0.143   0.000    0.00
   3.950   12.00    5.31   -1.46   0.000   0.143   0.000    0.00
   4.000   11.56    5.60   -1.46   0.000   0.143   0.000    0.00
   4.050   11.58    4.00   -1.66   0.000   0.143   0.000    0.00
   4.100   11.68    2.86   -1.84   0.000   0.143   0.000    0.00
   4.150   11.99    3.65   -1.94   0.000   0.143   0.000    0.00
   4.200   12.00    3.36   -2.03   0.000   0.143   0.000    0.00
   4.250   11.84    4.35   -2.10   0.000   0.143   0.000    0.00
   4.300   11.86    3.62   -1.86   0.000   0.143   0.000    0.00
   4.350   11.75    4.48   -1.68   0.000   0.143   0.000    0.00
   4.400   11.85    5.11   -1.49   0.000   0.143   0.000    0.00
   4.450   12.09    6.62   -1.39   0.000   0.143   0.000    0.00
   4.500   12.14    6.70   -1.35   0.000   0.143   0.000    0.00
   4.550   11.93    5.83   -1.25   0.000   0.143   0.000    0.00
   4.600   11.75    7.58   -1.25   0.000   0.143   0.000    0.00
   4.650   11.58    7.91   -1.03   0.000   0.143   0.000    0.00
   4.700   11.74    8.64   -0.99   0.000   0.143   0.000    0.00
   4.750   11.58    7.01   -0.85   0.000   0.143   0.000    0.00
   4.800   11.67    6.97   -0.98   0.000   0.143   0.000    0.00
   4.850   11.70    6.61   -0.85   0.000   0.143   0.000    0.00
   4.900   11.32    4.69   -0.64   0.000   0.143   0.000    0.00
   4.950   11.21    5.89   -0.71   0.000   0.143   0.000    0.00
   5.000   11.27    7.18   -0.65   0.000   0.143   0.000    0.00
   5.050   11.18    7.12   -0.94   0.000   0.143   0.000    0.00
   5.100   11.19    6.21   -0.91   0.000   0.143   0.000    0.00
   5.150   10.99    5.56   -1.02   0.000   0.143   0.000    0.00
   5.200   11.09    6.78   -1.04   0.000   0.143   0.000    0.00
   5.250   11.02    6.16   -1.05   0.000   0.143   0.000    0.00
   5.300   11.28    5.40   -1.13   0.000   0.143   0.000    0.00
   5.350   11.41    5.25   -1.05   0.000   0.143   0.000    0.00
   5.400   11.53    4.38   -1.10   0.000   0.143   0.000    0.00
   5.450   11.59    4.42   -1.26   0.000   0.143   0.000    0.00
   5.500   11.59    2.72   -1.27   0.000   0.143   0.000    0.00
   5.550   11.70    2.78   -1.50   0.000   0.143   0.000    0.00
   5.600   12.02    2.24   -1.63   0.000   0.143   0.000    0.00
   5.650   11.94    1.85   -1.77   0.000   0.143   0.000    0.00
   5.700   12.09    3.24   -1.54   0.000   0.143   0.000    0.00
   5.750   12.06    3.95   -1.29   0.000   0.143   0.000    0.00
   5.800   11.86    4.74   -1.55   0.000   0.143   0.000    0.00
   5.850   11.84    4.77   -1.52   0.000   0.143   0.000    0.00
   5.900   12.01    4.21   -1.65   0.000   0.143   0.000    0.00
   5.950   12.05    3.73   -1.28   0.000   0.143   0.000    0.00
   6.000   12.25    4.31   -1.28   0.000   0.143   0.000    0.00
   6.050   12.28    4.22   -1.29   0.000   0.143   0.000    0.00
   6.100   12.14    4.41   -1.25   0.000   0.143   0.000    0.00
   6.150   12.19    5.38   -1.31   0.000   0.143   0.000    0.00
   6.200   12.16    5.22   -1.39   0.000   0.143   0.000    0.00
   6.250   12.22    2.56   -1.35   0.000   0.143   0.000    0.00
   6.300   12.24    2.38   -1.37   0.000   0.143   0.000    0.00
   6.350   12.25    1.20   -1.36   0.000   0.143   0.000    0.00
   6.400   12.21    2.26   -1.29   0.000   0.143   0.000    0.00
   6.450   12.27    2.39   -1.17   0.000   0.143   0.000    0.00
   6.500   12.29    1.82   -1.22   0.000   0.143   0.000    0.00
   6.550   12.22    2.29   -1.33   0.000   0.143   0.000    0.00
   6.600   12.25    2.84   -1.38   0.000   0.143   0.000    0.00
   6.650   12.36    1.08   -1.27   0.000   0.143   0.000    0.00
   6.700   12.52    0.19   -1.17   0.000   0.143   0.000    0.00
   6.750   12.74   -0.38   -0.90   0.000   0.143   0.000    0.00
   6.800   12.50   -0.85   -0.75   0.000   0.143   0.000    0.00
   6.850   12.58   -1.52   -0.67   0.000   0.143   0.000    0.00
   6.900   12.26   -0.46   -0.84   0.000   0.143   0.000    0.00
   6.950   12.17   -1.00   -0.75   0.000   0.143   0.000    0.00
   7.000   12.19    0.40   -0.70   0.000   0.143   0.000    0.00
   7.050   12.24    1.86   -0.49   0.000   0.143   0.000    0.00
   7.100   12.27    0.45   -1.00   0.000   0.143   0.000    0.00
   7.150   12.11    0.28   -0.91   0.000   0.143   0.000    0.00
   7.200   12.07    0.69   -0.83   0.000   0.143   0.000    0.00
   7.250   12.13    2.30   -1.06   0.000   0.143   0.000    0.00
   7.300   12.11    3.62   -1.09   0.000   0.143   0.000    0.00
   7.350   11.89    2.97   -1.32   0.000   0.143   0.000    0.00
   7.400   12.17    4.32   -1.33   0.000   0.143   0.000    0.00
   7.450   12.29    3.61   -1.46   0.000   0.143   0.000    0.00
   7.500   12.36    2.03   -0.86   0.000   0.143   0.000    0.00
   7.550   12.63    2.15   -0.84   0.000   0.143   0.000    0.00
   7.600   12.59    2.88   -0.87   0.000   0.143   0.000    0.00
   7.650   12.55    2.25   -0.94   0.000   0.143   0.000    0.00
   7.700   12.39    3.21   -0.63   0.000   0.143   0.000    0.00
   7.750   12.51    3.46   -0.67   0.000   0.143   0.000    0.00
   7.800   12.38    2.52   -0.80   0.000   0.143   0.000    0.00
   7.850   12.39    2.43   -0.71   0.000   0.143   0.000    0.00
   7.900   12.41    2.00   -0.96   0.000   0.143   0.000    0.00
   7.950   12.13    2.78   -0.86   0.000   0.143   0.000    0.00
   8.000   12.09    4.00   -1.13   0.000   0.143   0.000    0.00
   8.050   12.23    4.68   -0.74   0.000   0.143   0.000    0.00
   8.100   12.27    4.08   -0.54   0.000   0.143   0.000    0.00
   8.150   12.11    3.53   -0.92   0.000   0.143   0.000    0.00
   8.200   11.92    4.42   -0.99   0.000   0.143   0.000    0.00
   8.250   11.93    5.42   -1.08   0.000   0.143   0.000    0.00
   8.300   11.98    5.79   -1.39   0.000   0.143   0.000    0.00
   8.350   11.96    5.27   -1.43   0.000   0.143   0.000    0.00
   8.400   11.95    4.27   -1.52   0.000   0.143   0.000    0.00
   8.450   11.95    4.38   -1.25   0.000   0.143   0.000    0.00
   8.500   12.27    5.51   -1.00   0.000   0.143   0.000    0.00
   8.550   12.39    5.54   -1.21   0.000   0.143   0.000    0.00
   8.600   12.26    4.98   -1.23   0.000   0.143   0.000    0.00
   8.650   12.31    5.15   -1.33   0.000   0.143   0.000    0.00
   8.700   12.15    4.84   -1.26   0.000   0.143   0.000    0.00
   8.750   12.42    5.07   -1.05   0.000   0.143   0.000    0.00
   8.800   12.21    5.37   -1.06   0.000   0.143   0.000    0.00
   8.850   12.01    5.67   -0.95   0.000   0.143   0.000    0.00
   8.900   11.90    4.01   -0.85   0.000   0.143   0.000    0.00
   8.950   11.78    3.63   -0.92   0.000   0.143   0.000    0.00
   9.000   11.82    2.18   -1.08   0.000   0.143   0.000    0.00
   9.050   12.08    1.80   -1.39   0.000   0.143   0.000    0.00
   9.100   12.14    2.78   -1.25   0.000   0.143   0.000    0.00
   9.150   12.11    2.68   -1.14   0.000   0.143   0.000    0.00
   9.200   12.18    1.84   -0.84   0.000   0.143   0.000    0.00
   9.250   12.30    2.77   -0.86   0.000   0.143   0.000    0.00
   9.300   12.25    2.62   -1.05   0.000   0.143   0.000    0.00
   9.350   12.11    2.39   -1.12   0.000   0.143   0.000    0.00
   9.400   12.12    3.20   -0.65   0.000   0.143   0.000    0.00
   9.450   12.16    3.45   -0.62   0.000   0.143   0.000    0.00
   9.500   12.28    4.65   -0.72   0.000   0.143   0.000    0.00
   9.550   11.99    3.98   -0.39   0.000   0.143   0.000    0.00
   9.600   12.06    2.32   -0.67   0.000   0.143   0.000    0.00
   9.650   12.04    3.88   -1.05   0.000   0.143   0.000    0.00
   9.700   12.04    3.92   -0.93   0.000   0.143   0.000    0.00
   9.750   12.03    3.05   -1.12   0.000   0.143   0.000    0.00
   9.800   11.86    2.96   -0.99   0.000   0.143   0.000    0.00
   9.850   11.98    2.85   -1.00   0.000   0.143   0.000    0.00
   9.900   12.00    2.68   -1.45   0.000   0.143   0.000    0.00
   9.950   11.95    1.70   -1.46   0.000   0.143   0.000    0.00
  10.000   12.02    1.14   -1.45   0.000   0.143   0.000    0.00
  10.050   12.12    1.69   -1.40   0.000   0.143   0.000    0.00
  10.100   12.27    2.26   -1.65   0.000   0.143   0.000    0.00
  10.150   12.34    2.73   -1.55   0.000   0.143   0.000    0.00
  10.200   12.06    2.93   -1.15   0.000   0.143   0.000    0.00
  10.250   12.10    3.00   -1.45   0.000   0.143   0.000    0.00
  10.300   12.18    3.03   -1.62   0.000   0.143   0.000    0.00
  10.350   11.96    4.59   -1.46   0.000   0.143   0.000    0.00
  10.400   11.64    5.26   -1.58   0.000   0.143   0.000    0.00
  10.450   11.67    5.62   -1.45   0.000   0.143   0.000    0.00
  10.500   11.84    5.17   -1.50   0.000   0.143   0.000    0.00
  10.550   12.04    4.86   -1.29   0.000   0.143   0.000    0.00
  10.600   12.09    4.34   -1.27   0.000   0.143   0.000    0.00
  10.650   12.23    5.50   -1.32   0.000   0.143   0.000    0.00
  10.700   12.32    6.23   -1.13   0.000   0.143   0.000    0.00
  10.750   12.27    6.32   -1.02   0.000   0.143   0.000    0.00
  10.800   12.06    5.48   -0.88   0.000   0.143   0.000    0.00
  10.850   11.93    5.30   -0.83   0.000   0.143   0.000    0.00
  10.900   11.93    4.95   -0.80   0.000   0.143   0.000    0.00
  10.950   11.89    4.29   -0.67   0.000   0.143   0.000    0.00
  11.000   11.79    4.25   -0.78   0.000   0.143   0.000    0.00
  11.050   11.79    3.41   -0.57   0.000   0.143   0.000    0.00
  11.100   11.54    4.07   -0.62   0.000   0.143   0.000    0.00
  11.150   11.74    3.41   -0.78   0.000   0.143   0.000    0.00
  11.200   11.76    2.51   -0.87   0.000   0.143   0.000    0.00
  11.250   11.64    2.05   -0.76   0.000   0.143   0.000    0.00
  11.300   11.43    1.28   -0.64   0.000   0.143   0.000    0.00
  11.350   11.58    1.00   -0.73   0.000   0.143   0.000    0.00
  11.400   11.37   -0.83   -0.75   0.000   0.143   0.000    0.00
  11.450   11.42   -2.27   -0.84   0.000   0.143   0.000    0.00
  11.500   11.30   -1.48   -0.77   0.000   0.143   0.000    0.00
  11.550   11.59   -0.08   -1.01   0.000   0.143   0.000    0.00
  11.600   11.85   -0.98   -0.79   0.000   0.143   0.000    0.00
  11.650   11.83    0.37   -0.76   0.000   0.143   0.000    0.00
  11.700   11.54    0.31   -0.64   0.000   0.143   0.000    0.00
  11.750   11.46    2.20   -0.39   0.000   0.143   0.000    0.00
  11.800   11.31    3.47   -0.46   0.000   0.143   0.000    0.00
  11.850   11.27    1.88   -0.20   0.000   0.143   0.000    0.00
  11.900   11.67    0.14   -0.24   0.000   0.143   0.000    0.00
  11.950   11.82   -0.67   -0.25   0.000   0.143   0.000    0.00
  12.000   11.77    0.60   -0.46   0.000   0.143   0.000    0.00
  12.050   11.50    1.25   -0.33   0.000   0.143   0.000    0.00
  12.100   11.55    0.94   -0.47   0.000   0.143   0.000    0.00
  12.150   11.73    0.72   -0.78   0.000   0.143   0.000    0.00
  12.200   11.84    1.39   -0.71   0.000   0.143   0.000    0.00
  12.250   11.80    0.62   -1.06   0.000   0.143   0.000    0.00
  12.300   11.86   -0.01   -1.23   0.000   0.143   0.000    0.00
  12.350   11.81   -0.24   -1.26   0.000   0.143   0.000    0.00
  12.400   11.68    0.18   -1.11   0.000   0.143   0.000    0.00
  12.450   11.63   -0.03   -1.03   0.000   0.143   0.000    0.00
  12.500   11.67    0.46   -0.88   0.000   0.143   0.000    0.00
  12.550   11.73    1.59   -1.00   0.000   0.143   0.000    0.00
  12.600   11.56    2.39   -0.77   0.000   0.143   0.000    0.00
  12.650   11.48    0.46   -1.22   0.000   0.143   0.000    0.00
  12.700   11.37    0.67   -1.38   0.000   0.143   0.000    0.00
  12.750   11.19    2.21   -1.49   0.000   0.143   0.000    0.00
  12.800   11.20    1.36   -1.34   0.000   0.143   0.000    0.00
  12.850   11.34    1.57   -1.48   0.000   0.143   0.000    0.00
  12.900   11.40    1.56   -1.52   0.000   0.143   0.000    0.00
  12.950   11.58    0.13   -1.47   0.000   0.143   0.000    0.00
  13.000   11.81   -0.83   -1.36   0.000   0.143   0.000    0.00
  13.050   12.08    0.61   -1.34   0.000   0.143   0.000    0.00
  13.100   12.15    0.63   -1.24   0.000   0.143   0.000    0.00
  13.150   12.02   -0.84   -1.28   0.000   0.143   0.000    0.00
  13.200   11.79   -1.64   -1.15   0.000   0.143   0.000    0.00
  13.250   11.80   -2.39   -1.05   0.000   0.143   0.000    0.00
  13.300   11.90   -1.16   -0.87   0.000   0.143   0.000    0.00
  13.350   11.69   -2.52   -0.66   0.000   0.143   0.000    0.00
  13.400   11.65   -1.52   -0.56   0.000   0.143   0.000    0.00
  13.450   12.04    0.00   -0.69   0.000   0.143   0.000    0.00
  13.500   11.96    0.89   -0.86   0.000   0.143   0.000    0.00
  13.550   11.70    0.18   -0.65   0.000   0.143   0.000    0.00
  13.600   11.59    0.94   -0.45   0.000   0.143   0.000    0.00
  13.650   11.74    0.93   -0.48   0.000   0.143   0.000    0.00
  13.700   11.88    2.58   -0.19   0.000   0.143   0.000    0.00
  13.750   11.79    2.34   -0.22   0.000   0.143   0.000    0.00
  13.800   11.82    3.17   -0.04   0.000   0.143   0.000    0.00
  13.850   11.79    4.09   -0.15   0.000   0.143   0.000    0.00
  13.900   11.84    3.71   -0.34   0.000   0.143   0.000    0.00
  13.950   11.83    3.94   -0.49   0.000   0.143   0.000    0.00
  14.000   11.73    3.76   -0.08   0.000   0.143   0.000    0.00
  14.050   11.74    3.57    0.19   0.000   0.143   0.000    0.00
  14.100   11.89    3.56   -0.16   0.000   0.143   0.000    0.00
  14.150   11.68    3.74   -0.14   0.000   0.143   0.000    0.00
  14.200   11.91    4.27   -0.20   0.000   0.143   0.000    0.00
  14.250   11.74    5.37    0.04   0.000   0.143   0.000    0.00
  14.300   11.99    5.20   -0.18   0.000   0.143   0.000    0.00
  14.350   11.91    4.71   -0.24   0.000   0.143   0.000    0.00
  14.400   11.66    4.89   -0.14   0.000   0.143   0.000    0.00
  14.450   11.32    4.08   -0.20   0.000   0.143   0.000    0.00
  14.500   11.48    2.30   -0.08   0.000   0.143   0.000    0.00
  14.550   11.55    0.84   -0.05   0.000   0.143   0.000    0.00
  14.600   11.90    0.38   -0.07   0.000   0.143   0.000    0.00
  14.650   11.69    2.61   -0.16   0.000   0.143   0.000    0.00
  14.700   11.56    3.20   -0.28   0.000   0.143   0.000    0.00
  14.750   11.60    3.69   -0.15   0.000   0.143   0.000    0.00
  14.800   11.60    4.19    0.15   0.000   0.143   0.000    0.00
  14.850   11.32    3.76    0.37   0.000   0.143   0.000    0.00
  14.900   11.28    3.80    0.42   0.000   0.143   0.000    0.00
  14.950   11.16    2.95    0.31   0.000   0.143   0.000    0.00
  15.000   11.18    2.71    0.27   0.000   0.143   0.000    0.00
  15.050   10.96    4.20    0.14   0.000   0.143   0.000    0.00
  15.100   11.08    3.55   -0.13   0.000   0.143   0.000    0.00
  15.150   11.05    4.47   -0.07   0.000   0.143   0.000    0.00
  15.200   11.12    3.69    0.00   0.000   0.143   0.000    0.00
  15.250   11.13    3.69   -0.08   0.000   0.143   0.000    0.00
  15.300   11.04    4.22    0.17   0.000   0.143   0.000    0.00
  15.350   10.89    4.40    0.39   0.000   0.143   0.000    0.00
  15.400   10.85    4.31    0.57   0.000   0.143   0.000    0.00
  15.450   10.55    5.38    0.69   0.000   0.143   0.000    0.00
  15.500   10.39    5.50    0.91   0.000   0.143   0.000    0.00
  15.550   10.38    4.58    1.26   0.000   0.143   0.000    0.00
  15.600   10.53    5.30    1.26   0.000   0.143   0.000    0.00
  15.650   10.70    6.02    1.27   0.000   0.143   0.000    0.00
  15.700   10.68    5.43    1.28   0.000   0.143   0.000    0.00
  15.750   11.00    4.55    1.30   0.000   0.143   0.000    0.00
  15.800   10.94    4.56    1.24   0.000   0.143   0.000    0.00
  15.850   10.94    4.38    1.34   0.000   0.143   0.000    0.00
  15.900   10.90    4.11    1.39   0.000   0.143   0.000    0.00
  15.950   10.78    3.61    1.34   0.000   0.143   0.000    0.00
  16.000   10.63    3.41    1.51   0.000   0.143   0.000    0.00
  16.050   10.60    1.29    1.54   0.000   0.143   0.000    0.00
  16.100   10.70    3.65    1.55   0.000   0.143   0.000    0.00
  16.150   10.74    3.07    1.07   0.000   0.143   0.000    0.00
  16.200   10.81    3.02    1.27   0.000   0.143   0.000    0.00
  16.250   10.89    3.34    1.39   0.000   0.143   0.000    0.00
  16.300   10.86    2.39    1.20   0.000   0.143   0.000    0.00
  16.350   10.69    3.12    1.37   0.000   0.143   0.000    0.00
  16.400   10.64    5.30    1.38   0.000   0.143   0.000    0.00
  16.450   10.86    3.04    1.14   0.000   0.143   0.000    0.00
  16.500   10.96    3.04    1.09   0.000   0.143   0.000    0.00
  16.550   10.89    4.31    1.35   0.000   0.143   0.000    0.00
  16.600   10.99    4.60    1.20   0.000   0.143   0.000    0.00
  16.650   10.74    5.14    1.17   0.000   0.143   0.000    0.00
  16.700   10.90    5.77    1.15   0.000   0.143   0.000    0.00
  16.750   11.04    5.56    0.83   0.000   0.143   0.000    0.00
  16.800   11.16    5.23    0.83   0.000   0.143   0.000    0.00
  16.850   11.06    5.23    0.54   0.000   0.143   0.000    0.00
  16.900   11.05    4.37    0.37   0.000   0.143   0.000    0.00
  16.950   11.18    4.50    0.12   0.000   0.143   0.000    0.00
  17.000   11.13    4.88   -0.39   0.000   0.143   0.000    0.00
  17.050   11.23    6.58   -0.60   0.000   0.143   0.000    0.00
  17.100   11.34    7.63   -0.23   0.000   0.143   0.000    0.00
  17.150   11.26    7.51    0.32   0.000   0.143   0.000    0.00
  17.200   11.12    6.34    0.25   0.000   0.143   0.000    0.00
  17.250   11.09    7.37    0.12   0.000   0.143   0.000    0.00
  17.300   11.06    7.35    0.14   0.000   0.143   0.000    0.00
  17.350   11.21    8.10   -0.06   0.000   0.143   0.000    0.00
  17.400   11.17    8.43   -0.20   0.000   0.143   0.000    0.00
  17.450   11.13    9.27   -0.20   0.000   0.143   0.000    0.00
  17.500   11.30    9.43   -0.09   0.000   0.143   0.000    0.00
  17.550   11.20    9.38    0.02   0.000   0.143   0.000    0.00
  17.600   11.18    8.81   -0.23   0.000   0.143   0.000    0.00
  17.650   11.00    9.33   -0.32   0.000   0.143   0.000    0.00
  17.700   11.05    8.17   -0.27   0.000   0.143   0.000    0.00
  17.750   10.93    7.95   -0.26   0.000   0.143   0.000    0.00
  17.800   10.68    8.42   -0.37   0.000   0.143   0.000    0.00
  17.850   10.88    8.28   -0.15   0.000   0.143   0.000    0.00
  17.900   10.85    7.90   -0.19   0.000   0.143   0.000    0.00
  17.950   10.54    8.48    0.10   0.000   0.143   0.000    0.00
  18.000   10.49    5.81    0.03   0.000   0.143   0.000    0.00
  18.050   10.41    4.26   -0.08   0.000   0.143   0.000    0.00
  18.100   10.48    3.77   -0.17   0.000   0.143   0.000    0.00
  18.150   10.52    3.90    0.23   0.000   0.143   0.000    0.00
  18.200   10.62    3.43    0.14   0.000   0.143   0.000    0.00
  18.250   10.55    3.14    0.06   0.000   0.143   0.000    0.00
  18.300   10.62    3.71   -0.03   0.000   0.143   0.000    0.00
  18.350   10.58    4.44    0.09   0.000   0.143   0.000    0.00
  18.400   10.61    5.25   -0.04   0.000   0.143   0.000    0.00
  18.450   10.51    3.53   -0.20   0.000   0.143   0.000    0.00
  18.500   10.58    3.22   -0.04   0.000   0.143   0.000    0.00
  18.550   10.72    2.71   -0.25   0.000   0.143   0.000    0.00
  18.600   10.96    1.89   -0.41   0.000   0.143   0.000    0.00
  18.650   11.12    2.24   -0.38   0.000   0.143   0.000    0.00
  18.700   10.96    2.09   -0.43   0.000   0.143   0.000    0.00
  18.750   10.90   -0.65    0.11   0.000   0.143   0.000    0.00
  18.800   10.71   -1.79   -0.17   0.000   0.143   0.000    0.00
  18.850   10.58    0.85   -0.19   0.000   0.143   0.000    0.00
  18.900   10.47   -0.25    0.04   0.000   0.143   0.000    0.00
  18.950   10.71    1.07    0.20   0.000   0.143   0.000    0.00
  19.000   10.92    1.28    0.13   0.000   0.143   0.000    0.00
  19.050   10.62    1.69    0.13   0.000   0.143   0.000    0.00
  19.100   10.53    2.04    0.18   0.000   0.143   0.000    0.00
  19.150   10.78    2.48    0.13   0.000   0.143   0.000    0.00
  19.200   10.96    2.27    0.17   0.000   0.143   0.000    0.00
  19.250   11.34    2.72    0.23   0.000   0.143   0.000    0.00
  19.300   11.05    2.37    0.08   0.000   0.143   0.000    0.00
  19.350   10.86    1.95    0.23   0.000   0.143   0.000    0.00
  19.400   10.93    1.38    0.42   0.000   0.143   0.000    0.00
  19.450   10.94    0.99    0.19   0.000   0.143   0.000    0.00
  19.500   10.88    2.51    0.11   0.000   0.143   0.000    0.00
  19.550   10.92    2.39   -0.11   0.000   0.143   0.000    0.00
  19.600   10.77    3.56    0.12   0.000   0.143   0.000    0.00
  19.650   10.87    3.39    0.05   0.000   0.143   0.000    0.00
  19.700   10.89    3.09   -0.17   0.000   0.143   0.000    0.00
  19.750   11.01    2.80   -0.15   0.000   0.143   0.000    0.00
  19.800   10.94    3.60    0.00   0.000   0.143   0.000    0.00
  19.850   10.66    4.71    0.08   0.000   0.143   0.000    0.00
  19.900   10.67    5.19    0.00   0.000   0.143   0.000    0.00
  19.950   10.93    5.40   -0.12   0.000   0.143   0.000    0.00
  20.000   10.67    4.06   -0.22   0.000   0.143   0.000    0.00
  20.050   10.78    3.72   -0.31   0.000   0.143   0.000    0.00
  20.100   10.87    2.96   -0.21   0.000   0.143   0.000    0.00
  20.150   10.89    3.43   -0.27   0.000   0.143   0.000    0.00
  20.200   10.81    3.25   -0.24   0.000   0.143   0.000    0.00
  20.250   10.94    3.80   -0.21   0.000   0.143   0.000    0.00
  20.300   10.86    2.72   -0.03   0.000   0.143   0.000    0.00
  20.350   11.08    2.80    0.05   0.000   0.143   0.000    0.00
  20.400   11.15    3.30    0.03   0.000   0.143   0.000    0.00
  20.450   11.08    3.29   -0.10   0.000   0.143   0.000    0.00
  20.500   11.09    2.61    0.00   0.000   0.143   0.000    0.00
  20.550   11.09    2.97   -0.12   0.000   0.143   0.000    0.00
  20.600   11.11    2.37    0.11   0.000   0.143   0.000    0.00
  20.650   11.07    2.78    0.17   0.000   0.143   0.000    0.00
  20.700   10.92    3.58    0.15   0.000   0.143   0.000    0.00
  20.750   11.10    4.21    0.37   0.000   0.143   0.000    0.00
  20.800   11.35    3.61    0.60   0.000   0.143   0.000    0.00
  20.850   11.78    2.92    0.50   0.000   0.143   0.000    0.00
  20.900   11.68    3.34    0.54   0.000   0.143   0.000    0.00
  20.950   11.21    4.30    0.63   0.000   0.143   0.000    0.00
  21.000   11.16    5.44    0.64   0.000   0.143   0.000    0.00
  21.050   11.19    4.04    0.57   0.000   0.143   0.000    0.00
  21.100   11.10    3.32    0.50   0.000   0.143   0.000    0.00
  21.150   11.24    3.87    0.51   0.000   0.143   0.000    0.00
  21.200   11.28    3.87    0.65   0.000   0.143   0.000    0.00
  21.250   11.37    5.09    0.73   0.000   0.143   0.000    0.00
  21.300   11.22    6.02    0.79   0.000   0.143   0.000    0.00
  21.350   11.26    4.47    0.81   0.000   0.143   0.000    0.00
  21.400   11.16    5.10    0.84   0.000   0.143   0.000    0.00
  21.450   11.17    5.60    0.61   0.000   0.143   0.000    0.00
  21.500   11.18    5.94    0.49   0.000   0.143   0.000    0.00
  21.550   11.36    5.57    0.96   0.000   0.143   0.000    0.00
  21.600   11.55    5.29    0.99   0.000   0.143   0.000    0.00
  21.650   11.33    5.69    0.84   0.000   0.143   0.000    0.00
  21.700   11.37    5.56    0.78   0.000   0.143   0.000    0.00
  21.750   11.27    5.22    1.02   0.000   0.143   0.000    0.00
  21.800   11.23    5.82    0.92   0.000   0.143   0.000    0.00
  21.850   11.35    5.82    1.04   0.000   0.143   0.000    0.00
  21.900   11.24    6.90    1.00   0.000   0.143   0.000    0.00
  21.950   11.11    5.98    1.13   0.000   0.143   0.000    0.00
  22.000   11.27    5.84    0.84   0.000   0.143   0.000    0.00
  22.050   11.34    5.93    0.90   0.000   0.143   0.000    0.00
  22.100   11.14    6.58    0.91   0.000   0.143   0.000    0.00
  22.150   11.03    7.34    0.43   0.000   0.143   0.000    0.00
  22.200   11.03    8.07    0.31   0.000   0.143   0.000    0.00
  22.250   10.92    8.63    0.46   0.000   0.143   0.000    0.00
  22.300   10.65    8.01    0.25   0.000   0.143   0.000    0.00
  22.350   10.41    8.70    0.08   0.000   0.143   0.000    0.00
  22.400   10.43    7.01    0.12   0.000   0.143   0.000    0.00
  22.450   10.36    6.83   -0.08   0.000   0.143   0.000    0.00
  22.500   10.33    6.32    0.06   0.000   0.143   0.000    0.00
  22.550   10.41    5.56    0.17   0.000   0.143   0.000    0.00
  22.600   10.40    5.28    0.13   0.000   0.143   0.000    0.00
  22.650   10.37    4.32   -0.14   0.000   0.143   0.000    0.00
  22.700   10.37    2.51    0.14   0.000   0.143   0.000    0.00
  22.750   10.23    2.20   -0.09   0.000   0.143   0.000    0.00