//parameters of the experiment
EXPERIMENT/NUM_EPISODES : 1		//number of episodes
EXPERIMENT/EPISODE_LENGTH : 360.0		//length in seconds
EXPERIMENT/RANDOM_SEED : 1			//the seed used to generate random numbers
EXPERIMENT/EVAL_FREQ : 50				//in episodes
EXPERIMENT/LOG/FREQ : 0.0			//in seconds
EXPERIMENT/LOG/OUTPUT_DIR : ../logs/wind-turbine
EXPERIMENT/LOG/FILE_PREFIX : wt-test-vidal
EXPERIMENT/LOG/EVALUATION_EPISODES : 1		//log all the evaluation episodes? 0: no/ 1: yes
EXPERIMENT/LOG/TRAINING_EPISODES : 0		//log all the training episodes? 0: no/ 1: yes
EXPERIMENT/LOG/EVALUATION_AVG_REWARDS : 1		//log summary of the evaluation episodes? 0: no/ 1: yes


//World
WORLD/DYNAMIC_MODEL : WIND_TURBINE_ONE_MASS
WORLD/DELTA_T : 0.01
WORLD/NUM_SIMULATION_STEPS : 4
WORLD/EVALUATION_WIND_DATA_FILE : ../config/wind-turbine/setpoints/TurbSim-10.25.hh
WORLD/WIND_DATA_FILES/0 : ../config/wind-turbine/setpoints/TurbSim-9.hh
WORLD/WIND_DATA_FILES/1 : ../config/wind-turbine/setpoints/TurbSim-9.5.hh
WORLD/WIND_DATA_FILES/2 : ../config/wind-turbine/setpoints/TurbSim-10.hh
WORLD/WIND_DATA_FILES/3 : ../config/wind-turbine/setpoints/TurbSim-10.5.hh
WORLD/WIND_DATA_FILES/4 : ../config/wind-turbine/setpoints/TurbSim-11.hh
WORLD/WIND_DATA_FILES/5 : ../config/wind-turbine/setpoints/TurbSim-11.5.hh
WORLD/WIND_DATA_FILES/6 : ../config/wind-turbine/setpoints/TurbSim-12.hh
WORLD/POWER_SET_POINT_FILE : ../config/wind-turbine/setpoints/windturbine-power-setpoint.txt
WORLD/REWARD/MIN_REWARD : -100.0
WORLD/REWARD/MAX_REWARD : 1.0
WORLD/REWARD/NUM_COMPONENTS : 4
WORLD/REWARD/COMPONENT_TYPE_0 : DEVIATION_VARIABLE
WORLD/REWARD/COMPONENT_WEIGHT_0 : 1
WORLD/REWARD/COMPONENT_TOLERANCE_0 : 10
WORLD/REWARD/CONTROL_ERROR_VARIABLE_0 : E_p
WORLD/REWARD/COMPONENT_TYPE_3 : DEVIATION_VARIABLE
WORLD/REWARD/COMPONENT_WEIGHT_3 : 1
WORLD/REWARD/COMPONENT_TOLERANCE_3 : 0.02
WORLD/REWARD/CONTROL_ERROR_VARIABLE_3 : E_omega_r
WORLD/REWARD/COMPONENT_TYPE_2 : DEVIATION_VARIABLE
WORLD/REWARD/COMPONENT_WEIGHT_2 : 1
WORLD/REWARD/COMPONENT_TOLERANCE_2 : 12000
WORLD/REWARD/CONTROL_ERROR_VARIABLE_2 : d_T_g
WORLD/REWARD/COMPONENT_TYPE_1 : DEVIATION_VARIABLE
WORLD/REWARD/COMPONENT_WEIGHT_1 : 1
WORLD/REWARD/COMPONENT_TOLERANCE_1 : 0.1745
WORLD/REWARD/CONTROL_ERROR_VARIABLE_1 : d_beta

//Simion god
SIMGOD/TYPE : ACTOR-ONLY
SIMGOD/ACTOR/ALGORITHM : VIDAL
SIMGOD/ACTOR/A : 1.0
SIMGOD/ACTOR/K_alpha : 6000.0
SIMGOD/ACTOR/KP : 1.0
SIMGOD/ACTOR/KI : 0.00//1
SIMGOD/ACTOR/P_s : 600000.0		//Power setpoint, used in the torque controller