! This hub-height wind-speed file was generated by TurbSim (v1.06.00, 21-Sep-2012) on 06-Dec-2015 at 18:52:58.
!
! The requested statistics for this data were:
!    Mean Total Wind Speed =   15.000 m/s
!
!   Time  HorSpd  WndDir  VerSpd  HorShr  VerShr  LnVShr  GstSpd
!  (sec)   (m/s)   (deg)   (m/s)     (-)     (-)     (-)   (m/s)
   0.000   20.27    2.62   -2.03   0.000   0.143   0.000    0.00
   0.050   20.04    1.81   -1.77   0.000   0.143   0.000    0.00
   0.100   19.74    1.56   -1.73   0.000   0.143   0.000    0.00
   0.150   20.44    3.13   -1.47   0.000   0.143   0.000    0.00
   0.200   20.38    3.09   -1.36   0.000   0.143   0.000    0.00
   0.250   20.22    3.82   -1.24   0.000   0.143   0.000    0.00
   0.300   19.91    3.57   -0.95   0.000   0.143   0.000    0.00
   0.350   19.89    3.17   -1.10   0.000   0.143   0.000    0.00
   0.400   19.97    2.50   -0.78   0.000   0.143   0.000    0.00
   0.450   20.18    3.22   -0.77   0.000   0.143   0.000    0.00
   0.500   19.86    3.35   -0.97   0.000   0.143   0.000    0.00
   0.550   19.53    2.17   -1.11   0.000   0.143   0.000    0.00
   0.600   19.62    1.36   -1.04   0.000   0.143   0.000    0.00
   0.650   19.73    0.39   -1.11   0.000   0.143   0.000    0.00
   0.700   19.72    1.06   -1.34   0.000   0.143   0.000    0.00
   0.750   19.76    1.61   -1.02   0.000   0.143   0.000    0.00
   0.800   19.85    1.66   -0.52   0.000   0.143   0.000    0.00
   0.850   19.67    1.70   -1.19   0.000   0.143   0.000    0.00
   0.900   19.91    1.59   -1.93   0.000   0.143   0.000    0.00
   0.950   20.03    1.84   -2.20   0.000   0.143   0.000    0.00
   1.000   19.48    1.17   -2.46   0.000   0.143   0.000    0.00
   1.050   19.09    2.61   -2.43   0.000   0.143   0.000    0.00
   1.100   19.03    2.26   -2.30   0.000   0.143   0.000    0.00
   1.150   18.93    3.73   -1.98   0.000   0.143   0.000    0.00
   1.200   18.37    4.18   -2.19   0.000   0.143   0.000    0.00
   1.250   18.52    3.91   -2.02   0.000   0.143   0.000    0.00
   1.300   18.62    4.98   -2.11   0.000   0.143   0.000    0.00
   1.350   18.47    4.70   -1.85   0.000   0.143   0.000    0.00
   1.400   18.85    5.10   -2.06   0.000   0.143   0.000    0.00
   1.450   19.16    4.73   -2.49   0.000   0.143   0.000    0.00
   1.500   19.33    4.77   -2.39   0.000   0.143   0.000    0.00
   1.550   19.44    4.24   -2.06   0.000   0.143   0.000    0.00
   1.600   19.33    3.65   -2.42   0.000   0.143   0.000    0.00
   1.650   19.53    4.28   -2.36   0.000   0.143   0.000    0.00
   1.700   19.51    4.99   -2.37   0.000   0.143   0.000    0.00
   1.750   19.35    4.82   -1.54   0.000   0.143   0.000    0.00
   1.800   19.36    4.08   -1.56   0.000   0.143   0.000    0.00
   1.850   19.17    3.97   -1.96   0.000   0.143   0.000    0.00
   1.900   19.45    2.57   -1.78   0.000   0.143   0.000    0.00
   1.950   19.26    2.90   -2.03   0.000   0.143   0.000    0.00
   2.000   19.02    4.34   -2.21   0.000   0.143   0.000    0.00
   2.050   18.94    4.62   -1.55   0.000   0.143   0.000    0.00
   2.100   18.82    3.31   -1.81   0.000   0.143   0.000    0.00
   2.150   18.40    2.83   -1.74   0.000   0.143   0.000    0.00
   2.200   18.00    4.27   -1.95   0.000   0.143   0.000    0.00
   2.250   18.55    4.75   -1.49   0.000   0.143   0.000    0.00
   2.300   18.96    3.55   -1.53   0.000   0.143   0.000    0.00
   2.350   19.03    4.65   -1.69   0.000   0.143   0.000    0.00
   2.400   18.92    4.51   -2.06   0.000   0.143   0.000    0.00
   2.450   19.09    3.46   -2.46   0.000   0.143   0.000    0.00
   2.500   19.49    3.58   -2.67   0.000   0.143   0.000    0.00
   2.550   19.16    3.38   -2.64   0.000   0.143   0.000    0.00
   2.600   18.77    3.31   -3.12   0.000   0.143   0.000    0.00
   2.650   18.48    3.45   -3.25   0.000   0.143   0.000    0.00
   2.700   18.49    4.54   -2.78   0.000   0.143   0.000    0.00
   2.750   18.72    6.51   -2.75   0.000   0.143   0.000    0.00
   2.800   19.27    6.99   -2.75   0.000   0.143   0.000    0.00
   2.850   18.87    6.15   -2.37   0.000   0.143   0.000    0.00
   2.900   19.10    5.41   -2.35   0.000   0.143   0.000    0.00
   2.950   18.92    4.18   -2.08   0.000   0.143   0.000    0.00
   3.000   18.79    4.81   -2.14   0.000   0.143   0.000    0.00
   3.050   18.81    4.63   -2.14   0.000   0.143   0.000    0.00
   3.100   18.38    3.72   -1.85   0.000   0.143   0.000    0.00
   3.150   18.51    3.37   -1.52   0.000   0.143   0.000    0.00
   3.200   18.31    3.64   -1.22   0.000   0.143   0.000    0.00
   3.250   18.26    4.11   -1.02   0.000   0.143   0.000    0.00
   3.300   18.49    4.56   -1.46   0.000   0.143   0.000    0.00
   3.350   18.04    3.83   -1.40   0.000   0.143   0.000    0.00
   3.400   17.95    2.44   -1.52   0.000   0.143   0.000    0.00
   3.450   18.38    2.32   -1.40   0.000   0.143   0.000    0.00
   3.500   18.12    2.03   -1.44   0.000   0.143   0.000    0.00
   3.550   17.85   -0.99   -1.49   0.000   0.143   0.000    0.00
   3.600   17.83   -0.84   -1.57   0.000   0.143   0.000    0.00
   3.650   18.40    0.52   -1.50   0.000   0.143   0.000    0.00
   3.700   17.91    2.16   -1.53   0.000   0.143   0.000    0.00
   3.750   18.10    3.20   -1.64   0.000   0.143   0.000    0.00
   3.800   18.39    4.67   -1.85   0.000   0.143   0.000    0.00
   3.850   18.00    5.44   -1.81   0.000   0.143   0.000    0.00
   3.900   17.94    4.23   -1.80   0.000   0.143   0.000    0.00
   3.950   17.77    4.94   -2.02   0.000   0.143   0.000    0.00
   4.000   17.02    5.25   -2.01   0.000   0.143   0.000    0.00
   4.050   17.06    3.39   -2.36   0.000   0.143   0.000    0.00
   4.100   17.23    2.08   -2.66   0.000   0.143   0.000    0.00
   4.150   17.75    3.02   -2.84   0.000   0.143   0.000    0.00
   4.200   17.78    2.67   -3.00   0.000   0.143   0.000    0.00
   4.250   17.49    3.81   -3.11   0.000   0.143   0.000    0.00
   4.300   17.54    2.97   -2.70   0.000   0.143   0.000    0.00
   4.350   17.34    3.96   -2.38   0.000   0.143   0.000    0.00
   4.400   17.51    4.71   -2.06   0.000   0.143   0.000    0.00
   4.450   17.92    6.46   -1.91   0.000   0.143   0.000    0.00
   4.500   18.01    6.55   -1.83   0.000   0.143   0.000    0.00
   4.550   17.65    5.54   -1.65   0.000   0.143   0.000    0.00
   4.600   17.34    7.58   -1.66   0.000   0.143   0.000    0.00
   4.650   17.04    7.96   -1.28   0.000   0.143   0.000    0.00
   4.700   17.33    8.81   -1.21   0.000   0.143   0.000    0.00
   4.750   17.04    6.91   -0.98   0.000   0.143   0.000    0.00
   4.800   17.20    6.87   -1.20   0.000   0.143   0.000    0.00
   4.850   17.26    6.45   -0.98   0.000   0.143   0.000    0.00
   4.900   16.61    4.20   -0.62   0.000   0.143   0.000    0.00
   4.950   16.42    5.60   -0.73   0.000   0.143   0.000    0.00
   5.000   16.52    7.12   -0.62   0.000   0.143   0.000    0.00
   5.050   16.37    7.05   -1.12   0.000   0.143   0.000    0.00
   5.100   16.38    5.99   -1.07   0.000   0.143   0.000    0.00
   5.150   16.05    5.22   -1.27   0.000   0.143   0.000    0.00
   5.200   16.22    6.66   -1.29   0.000   0.143   0.000    0.00
   5.250   16.09    5.92   -1.31   0.000   0.143   0.000    0.00
   5.300   16.54    5.05   -1.45   0.000   0.143   0.000    0.00
   5.350   16.76    4.88   -1.32   0.000   0.143   0.000    0.00
   5.400   16.97    3.87   -1.42   0.000   0.143   0.000    0.00
   5.450   17.08    3.93   -1.69   0.000   0.143   0.000    0.00
   5.500   17.09    1.95   -1.70   0.000   0.143   0.000    0.00
   5.550   17.27    2.03   -2.11   0.000   0.143   0.000    0.00
   5.600   17.82    1.43   -2.33   0.000   0.143   0.000    0.00
   5.650   17.69    0.97   -2.57   0.000   0.143   0.000    0.00
   5.700   17.94    2.59   -2.17   0.000   0.143   0.000    0.00
   5.750   17.89    3.42   -1.75   0.000   0.143   0.000    0.00
   5.800   17.55    4.32   -2.19   0.000   0.143   0.000    0.00
   5.850   17.50    4.36   -2.15   0.000   0.143   0.000    0.00
   5.900   17.80    3.72   -2.37   0.000   0.143   0.000    0.00
   5.950   17.86    3.18   -1.73   0.000   0.143   0.000    0.00
   6.000   18.22    3.85   -1.74   0.000   0.143   0.000    0.00
   6.050   18.26    3.76   -1.76   0.000   0.143   0.000    0.00
   6.100   18.03    3.97   -1.69   0.000   0.143   0.000    0.00
   6.150   18.11    5.10   -1.80   0.000   0.143   0.000    0.00
   6.200   18.05    4.92   -1.94   0.000   0.143   0.000    0.00
   6.250   18.17    1.85   -1.87   0.000   0.143   0.000    0.00
   6.300   18.21    1.64   -1.90   0.000   0.143   0.000    0.00
   6.350   18.23    0.29   -1.88   0.000   0.143   0.000    0.00
   6.400   18.15    1.51   -1.77   0.000   0.143   0.000    0.00
   6.450   18.26    1.66   -1.57   0.000   0.143   0.000    0.00
   6.500   18.29    1.01   -1.65   0.000   0.143   0.000    0.00
   6.550   18.18    1.55   -1.85   0.000   0.143   0.000    0.00
   6.600   18.23    2.19   -1.94   0.000   0.143   0.000    0.00
   6.650   18.41    0.17   -1.76   0.000   0.143   0.000    0.00
   6.700   18.70   -0.83   -1.59   0.000   0.143   0.000    0.00
   6.750   19.07   -1.47   -1.13   0.000   0.143   0.000    0.00
   6.800   18.67   -2.02   -0.87   0.000   0.143   0.000    0.00
   6.850   18.81   -2.79   -0.74   0.000   0.143   0.000    0.00
   6.900   18.26   -1.61   -1.03   0.000   0.143   0.000    0.00
   6.950   18.10   -2.23   -0.86   0.000   0.143   0.000    0.00
   7.000   18.13   -0.62   -0.78   0.000   0.143   0.000    0.00
   7.050   18.21    1.08   -0.43   0.000   0.143   0.000    0.00
   7.100   18.26   -0.55   -1.30   0.000   0.143   0.000    0.00
   7.150   18.00   -0.76   -1.14   0.000   0.143   0.000    0.00
   7.200   17.93   -0.28   -1.00   0.000   0.143   0.000    0.00
   7.250   18.01    1.58   -1.40   0.000   0.143   0.000    0.00
   7.300   17.98    3.10   -1.45   0.000   0.143   0.000    0.00
   7.350   17.61    2.34   -1.84   0.000   0.143   0.000    0.00
   7.400   18.09    3.91   -1.88   0.000   0.143   0.000    0.00
   7.450   18.30    3.10   -2.09   0.000   0.143   0.000    0.00
   7.500   18.42    1.28   -1.07   0.000   0.143   0.000    0.00
   7.550   18.88    1.44   -1.05   0.000   0.143   0.000    0.00
   7.600   18.81    2.28   -1.10   0.000   0.143   0.000    0.00
   7.650   18.74    1.56   -1.22   0.000   0.143   0.000    0.00
   7.700   18.47    2.65   -0.68   0.000   0.143   0.000    0.00
   7.750   18.67    2.95   -0.76   0.000   0.143   0.000    0.00
   7.800   18.45    1.85   -0.98   0.000   0.143   0.000    0.00
   7.850   18.46    1.75   -0.83   0.000   0.143   0.000    0.00
   7.900   18.51    1.26   -1.25   0.000   0.143   0.000    0.00
   7.950   18.02    2.14   -1.08   0.000   0.143   0.000    0.00
   8.000   17.95    3.55   -1.53   0.000   0.143   0.000    0.00
   8.050   18.19    4.34   -0.88   0.000   0.143   0.000    0.00
   8.100   18.25    3.65   -0.52   0.000   0.143   0.000    0.00
   8.150   17.99    3.01   -1.18   0.000   0.143   0.000    0.00
   8.200   17.65    4.03   -1.30   0.000   0.143   0.000    0.00
   8.250   17.67    5.18   -1.45   0.000   0.143   0.000    0.00
   8.300   17.75    5.61   -1.98   0.000   0.143   0.000    0.00
   8.350   17.73    5.01   -2.06   0.000   0.143   0.000    0.00
   8.400   17.71    3.86   -2.21   0.000   0.143   0.000    0.00
   8.450   17.71    3.99   -1.75   0.000   0.143   0.000    0.00
   8.500   18.26    5.30   -1.32   0.000   0.143   0.000    0.00
   8.550   18.46    5.33   -1.69   0.000   0.143   0.000    0.00
   8.600   18.23    4.69   -1.72   0.000   0.143   0.000    0.00
   8.650   18.33    4.89   -1.89   0.000   0.143   0.000    0.00
   8.700   18.06    4.53   -1.78   0.000   0.143   0.000    0.00
   8.750   18.51    4.81   -1.42   0.000   0.143   0.000    0.00
   8.800   18.15    5.14   -1.42   0.000   0.143   0.000    0.00
   8.850   17.80    5.49   -1.23   0.000   0.143   0.000    0.00
   8.900   17.62    3.57   -1.07   0.000   0.143   0.000    0.00
   8.950   17.42    3.12   -1.19   0.000   0.143   0.000    0.00
   9.000   17.49    1.45   -1.46   0.000   0.143   0.000    0.00
   9.050   17.94    1.02   -2.00   0.000   0.143   0.000    0.00
   9.100   18.05    2.17   -1.76   0.000   0.143   0.000    0.00
   9.150   17.99    2.05   -1.57   0.000   0.143   0.000    0.00
   9.200   18.12    1.09   -1.07   0.000   0.143   0.000    0.00
   9.250   18.32    2.17   -1.10   0.000   0.143   0.000    0.00
   9.300   18.23    1.99   -1.43   0.000   0.143   0.000    0.00
   9.350   17.99    1.72   -1.55   0.000   0.143   0.000    0.00
   9.400   18.01    2.65   -0.74   0.000   0.143   0.000    0.00
   9.450   18.08    2.95   -0.70   0.000   0.143   0.000    0.00
   9.500   18.29    4.34   -0.87   0.000   0.143   0.000    0.00
   9.550   17.79    3.55   -0.30   0.000   0.143   0.000    0.00
   9.600   17.91    1.64   -0.77   0.000   0.143   0.000    0.00
   9.650   17.87    3.44   -1.43   0.000   0.143   0.000    0.00
   9.700   17.88    3.49   -1.22   0.000   0.143   0.000    0.00
   9.750   17.87    2.49   -1.55   0.000   0.143   0.000    0.00
   9.800   17.57    2.38   -1.33   0.000   0.143   0.000    0.00
   9.850   17.77    2.26   -1.34   0.000   0.143   0.000    0.00
   9.900   17.81    2.07   -2.12   0.000   0.143   0.000    0.00
   9.950   17.72    0.93   -2.14   0.000   0.143   0.000    0.00
  10.000   17.85    0.29   -2.13   0.000   0.143   0.000    0.00
  10.050   18.03    0.93   -2.04   0.000   0.143   0.000    0.00
  10.100   18.29    1.60   -2.48   0.000   0.143   0.000    0.00
  10.150   18.40    2.14   -2.31   0.000   0.143   0.000    0.00
  10.200   17.91    2.36   -1.61   0.000   0.143   0.000    0.00
  10.250   17.98    2.45   -2.13   0.000   0.143   0.000    0.00
  10.300   18.12    2.49   -2.44   0.000   0.143   0.000    0.00
  10.350   17.74    4.28   -2.15   0.000   0.143   0.000    0.00
  10.400   17.20    5.05   -2.36   0.000   0.143   0.000    0.00
  10.450   17.24    5.47   -2.14   0.000   0.143   0.000    0.00
  10.500   17.53    4.95   -2.22   0.000   0.143   0.000    0.00
  10.550   17.88    4.60   -1.86   0.000   0.143   0.000    0.00
  10.600   17.96    4.00   -1.84   0.000   0.143   0.000    0.00
  10.650   18.20    5.34   -1.93   0.000   0.143   0.000    0.00
  10.700   18.36    6.18   -1.61   0.000   0.143   0.000    0.00
  10.750   18.28    6.29   -1.42   0.000   0.143   0.000    0.00
  10.800   17.91    5.33   -1.18   0.000   0.143   0.000    0.00
  10.850   17.68    5.12   -1.10   0.000   0.143   0.000    0.00
  10.900   17.70    4.71   -1.05   0.000   0.143   0.000    0.00
  10.950   17.62    3.95   -0.83   0.000   0.143   0.000    0.00
  11.000   17.45    3.90   -1.02   0.000   0.143   0.000    0.00
  11.050   17.46    2.94   -0.67   0.000   0.143   0.000    0.00
  11.100   17.03    3.69   -0.75   0.000   0.143   0.000    0.00
  11.150   17.37    2.93   -1.03   0.000   0.143   0.000    0.00
  11.200   17.41    1.90   -1.18   0.000   0.143   0.000    0.00
  11.250   17.20    1.36   -1.00   0.000   0.143   0.000    0.00
  11.300   16.85    0.45   -0.79   0.000   0.143   0.000    0.00
  11.350   17.11    0.14   -0.94   0.000   0.143   0.000    0.00
  11.400   16.76   -2.01   -0.99   0.000   0.143   0.000    0.00
  11.450   16.85   -3.68   -1.14   0.000   0.143   0.000    0.00
  11.500   16.65   -2.77   -1.03   0.000   0.143   0.000    0.00
  11.550   17.13   -1.10   -1.44   0.000   0.143   0.000    0.00
  11.600   17.59   -2.12   -1.07   0.000   0.143   0.000    0.00
  11.650   17.54   -0.56   -1.03   0.000   0.143   0.000    0.00
  11.700   17.05   -0.65   -0.81   0.000   0.143   0.000    0.00
  11.750   16.91    1.54   -0.39   0.000   0.143   0.000    0.00
  11.800   16.64    3.01   -0.51   0.000   0.143   0.000    0.00
  11.850   16.57    1.16   -0.07   0.000   0.143   0.000    0.00
  11.900   17.28   -0.83   -0.15   0.000   0.143   0.000    0.00
  11.950   17.53   -1.76   -0.17   0.000   0.143   0.000    0.00
  12.000   17.45   -0.28   -0.53   0.000   0.143   0.000    0.00
  12.050   16.99    0.45   -0.30   0.000   0.143   0.000    0.00
  12.100   17.06    0.10   -0.55   0.000   0.143   0.000    0.00
  12.150   17.38   -0.15   -1.07   0.000   0.143   0.000    0.00
  12.200   17.56    0.64   -0.97   0.000   0.143   0.000    0.00
  12.250   17.50   -0.26   -1.57   0.000   0.143   0.000    0.00
  12.300   17.61   -0.98   -1.86   0.000   0.143   0.000    0.00
  12.350   17.53   -1.25   -1.92   0.000   0.143   0.000    0.00
  12.400   17.29   -0.77   -1.66   0.000   0.143   0.000    0.00
  12.450   17.21   -1.02   -1.51   0.000   0.143   0.000    0.00
  12.500   17.27   -0.45   -1.26   0.000   0.143   0.000    0.00
  12.550   17.38    0.86   -1.48   0.000   0.143   0.000    0.00
  12.600   17.09    1.78   -1.08   0.000   0.143   0.000    0.00
  12.650   16.95   -0.47   -1.85   0.000   0.143   0.000    0.00
  12.700   16.76   -0.23   -2.13   0.000   0.143   0.000    0.00
  12.750   16.44    1.55   -2.33   0.000   0.143   0.000    0.00
  12.800   16.47    0.56   -2.06   0.000   0.143   0.000    0.00
  12.850   16.70    0.82   -2.32   0.000   0.143   0.000    0.00
  12.900   16.82    0.80   -2.39   0.000   0.143   0.000    0.00
  12.950   17.12   -0.85   -2.30   0.000   0.143   0.000    0.00
  13.000   17.52   -1.93   -2.12   0.000   0.143   0.000    0.00
  13.050   17.98   -0.24   -2.11   0.000   0.143   0.000    0.00
  13.100   18.11   -0.22   -1.94   0.000   0.143   0.000    0.00
  13.150   17.89   -1.92   -2.01   0.000   0.143   0.000    0.00
  13.200   17.51   -2.88   -1.78   0.000   0.143   0.000    0.00
  13.250   17.53   -3.74   -1.62   0.000   0.143   0.000    0.00
  13.300   17.69   -2.30   -1.31   0.000   0.143   0.000    0.00
  13.350   17.34   -3.91   -0.97   0.000   0.143   0.000    0.00
  13.400   17.27   -2.76   -0.79   0.000   0.143   0.000    0.00
  13.450   17.92   -0.96   -1.04   0.000   0.143   0.000    0.00
  13.500   17.78    0.05   -1.33   0.000   0.143   0.000    0.00
  13.550   17.35   -0.79   -0.97   0.000   0.143   0.000    0.00
  13.600   17.15    0.08   -0.63   0.000   0.143   0.000    0.00
  13.650   17.40    0.08   -0.69   0.000   0.143   0.000    0.00
  13.700   17.64    2.00   -0.21   0.000   0.143   0.000    0.00
  13.750   17.48    1.71   -0.26   0.000   0.143   0.000    0.00
  13.800   17.54    2.67    0.05   0.000   0.143   0.000    0.00
  13.850   17.47    3.73   -0.14   0.000   0.143   0.000    0.00
  13.900   17.58    3.29   -0.47   0.000   0.143   0.000    0.00
  13.950   17.54    3.56   -0.74   0.000   0.143   0.000    0.00
  14.000   17.37    3.34   -0.03   0.000   0.143   0.000    0.00
  14.050   17.41    3.12    0.41   0.000   0.143   0.000    0.00
  14.100   17.65    3.11   -0.19   0.000   0.143   0.000    0.00
  14.150   17.30    3.31   -0.16   0.000   0.143   0.000    0.00
  14.200   17.70    3.93   -0.26   0.000   0.143   0.000    0.00
  14.250   17.40    5.19    0.14   0.000   0.143   0.000    0.00
  14.300   17.82    5.00   -0.25   0.000   0.143   0.000    0.00
  14.350   17.69    4.43   -0.36   0.000   0.143   0.000    0.00
  14.400   17.26    4.63   -0.19   0.000   0.143   0.000    0.00
  14.450   16.68    3.67   -0.28   0.000   0.143   0.000    0.00
  14.500   16.96    1.61   -0.09   0.000   0.143   0.000    0.00
  14.550   17.09   -0.08   -0.05   0.000   0.143   0.000    0.00
  14.600   17.70   -0.58   -0.09   0.000   0.143   0.000    0.00
  14.650   17.32    1.98   -0.25   0.000   0.143   0.000    0.00
  14.700   17.09    2.66   -0.46   0.000   0.143   0.000    0.00
  14.750   17.17    3.22   -0.24   0.000   0.143   0.000    0.00
  14.800   17.17    3.80    0.26   0.000   0.143   0.000    0.00
  14.850   16.68    3.29    0.65   0.000   0.143   0.000    0.00
  14.900   16.63    3.33    0.73   0.000   0.143   0.000    0.00
  14.950   16.41    2.33    0.53   0.000   0.143   0.000    0.00
  15.000   16.44    2.05    0.46   0.000   0.143   0.000    0.00
  15.050   16.07    3.77    0.24   0.000   0.143   0.000    0.00
  15.100   16.27    3.02   -0.23   0.000   0.143   0.000    0.00
  15.150   16.22    4.09   -0.13   0.000   0.143   0.000    0.00
  15.200   16.34    3.17   -0.03   0.000   0.143   0.000    0.00
  15.250   16.37    3.17   -0.15   0.000   0.143   0.000    0.00
  15.300   16.21    3.79    0.27   0.000   0.143   0.000    0.00
  15.350   15.94    4.00    0.65   0.000   0.143   0.000    0.00
  15.400   15.88    3.88    0.94   0.000   0.143   0.000    0.00
  15.450   15.37    5.13    1.15   0.000   0.143   0.000    0.00
  15.500   15.09    5.27    1.52   0.000   0.143   0.000    0.00
  15.550   15.08    4.17    2.12   0.000   0.143   0.000    0.00
  15.600   15.34    5.02    2.11   0.000   0.143   0.000    0.00
  15.650   15.63    5.88    2.12   0.000   0.143   0.000    0.00
  15.700   15.59    5.18    2.14   0.000   0.143   0.000    0.00
  15.750   16.15    4.16    2.16   0.000   0.143   0.000    0.00
  15.800   16.05    4.16    2.06   0.000   0.143   0.000    0.00
  15.850   16.04    3.96    2.22   0.000   0.143   0.000    0.00
  15.900   15.97    3.63    2.30   0.000   0.143   0.000    0.00
  15.950   15.78    3.04    2.22   0.000   0.143   0.000    0.00
  16.000   15.51    2.79    2.51   0.000   0.143   0.000    0.00
  16.050   15.48    0.30    2.56   0.000   0.143   0.000    0.00
  16.100   15.63    3.08    2.57   0.000   0.143   0.000    0.00
  16.150   15.71    2.40    1.74   0.000   0.143   0.000    0.00
  16.200   15.83    2.35    2.10   0.000   0.143   0.000    0.00
  16.250   15.97    2.73    2.29   0.000   0.143   0.000    0.00
  16.300   15.91    1.61    1.97   0.000   0.143   0.000    0.00
  16.350   15.62    2.44    2.27   0.000   0.143   0.000    0.00
  16.400   15.53    5.00    2.27   0.000   0.143   0.000    0.00
  16.450   15.92    2.36    1.85   0.000   0.143   0.000    0.00
  16.500   16.09    2.37    1.77   0.000   0.143   0.000    0.00
  16.550   15.96    3.85    2.23   0.000   0.143   0.000    0.00
  16.600   16.13    4.19    1.96   0.000   0.143   0.000    0.00
  16.650   15.71    4.81    1.92   0.000   0.143   0.000    0.00
  16.700   15.98    5.55    1.89   0.000   0.143   0.000    0.00
  16.750   16.22    5.31    1.33   0.000   0.143   0.000    0.00
  16.800   16.43    4.92    1.34   0.000   0.143   0.000    0.00
  16.850   16.26    4.92    0.84   0.000   0.143   0.000    0.00
  16.900   16.24    3.91    0.55   0.000   0.143   0.000    0.00
  16.950   16.46    4.07    0.11   0.000   0.143   0.000    0.00
  17.000   16.38    4.50   -0.76   0.000   0.143   0.000    0.00
  17.050   16.54    6.49   -1.12   0.000   0.143   0.000    0.00
  17.100   16.74    7.71   -0.48   0.000   0.143   0.000    0.00
  17.150   16.61    7.57    0.46   0.000   0.143   0.000    0.00
  17.200   16.35    6.20    0.35   0.000   0.143   0.000    0.00
  17.250   16.30    7.40    0.13   0.000   0.143   0.000    0.00
  17.300   16.25    7.37    0.16   0.000   0.143   0.000    0.00
  17.350   16.51    8.25   -0.17   0.000   0.143   0.000    0.00
  17.400   16.44    8.63   -0.41   0.000   0.143   0.000    0.00
  17.450   16.39    9.61   -0.41   0.000   0.143   0.000    0.00
  17.500   16.68    9.80   -0.22   0.000   0.143   0.000    0.00
  17.550   16.50    9.74   -0.04   0.000   0.143   0.000    0.00
  17.600   16.46    9.07   -0.47   0.000   0.143   0.000    0.00
  17.650   16.16    9.69   -0.61   0.000   0.143   0.000    0.00
  17.700   16.25    8.34   -0.52   0.000   0.143   0.000    0.00
  17.750   16.04    8.09   -0.50   0.000   0.143   0.000    0.00
  17.800   15.60    8.64   -0.70   0.000   0.143   0.000    0.00
  17.850   15.95    8.47   -0.32   0.000   0.143   0.000    0.00
  17.900   15.91    8.03   -0.38   0.000   0.143   0.000    0.00
  17.950   15.37    8.72    0.11   0.000   0.143   0.000    0.00
  18.000   15.29    5.58   -0.01   0.000   0.143   0.000    0.00
  18.050   15.15    3.75   -0.20   0.000   0.143   0.000    0.00
  18.100   15.27    3.18   -0.34   0.000   0.143   0.000    0.00
  18.150   15.34    3.33    0.33   0.000   0.143   0.000    0.00
  18.200   15.51    2.80    0.17   0.000   0.143   0.000    0.00
  18.250   15.40    2.45    0.04   0.000   0.143   0.000    0.00
  18.300   15.52    3.13   -0.12   0.000   0.143   0.000    0.00
  18.350   15.45    3.98    0.10   0.000   0.143   0.000    0.00
  18.400   15.49    4.94   -0.13   0.000   0.143   0.000    0.00
  18.450   15.33    2.92   -0.40   0.000   0.143   0.000    0.00
  18.500   15.45    2.55   -0.14   0.000   0.143   0.000    0.00
  18.550   15.69    1.97   -0.49   0.000   0.143   0.000    0.00
  18.600   16.11    1.03   -0.77   0.000   0.143   0.000    0.00
  18.650   16.38    1.46   -0.72   0.000   0.143   0.000    0.00
  18.700   16.12    1.27   -0.81   0.000   0.143   0.000    0.00
  18.750   16.03   -1.94    0.11   0.000   0.143   0.000    0.00
  18.800   15.70   -3.29   -0.36   0.000   0.143   0.000    0.00
  18.850   15.47   -0.21   -0.39   0.000   0.143   0.000    0.00
  18.900   15.29   -1.52   -0.01   0.000   0.143   0.000    0.00
  18.950   15.69    0.06    0.28   0.000   0.143   0.000    0.00
  19.000   16.05    0.33    0.14   0.000   0.143   0.000    0.00
  19.050   15.53    0.78    0.15   0.000   0.143   0.000    0.00
  19.100   15.37    1.18    0.23   0.000   0.143   0.000    0.00
  19.150   15.81    1.72    0.15   0.000   0.143   0.000    0.00
  19.200   16.11    1.48    0.21   0.000   0.143   0.000    0.00
  19.250   16.76    2.04    0.30   0.000   0.143   0.000    0.00
  19.300   16.26    1.62    0.04   0.000   0.143   0.000    0.00
  19.350   15.95    1.11    0.31   0.000   0.143   0.000    0.00
  19.400   16.06    0.44    0.63   0.000   0.143   0.000    0.00
  19.450   16.08   -0.01    0.23   0.000   0.143   0.000    0.00
  19.500   15.98    1.76    0.09   0.000   0.143   0.000    0.00
  19.550   16.05    1.62   -0.29   0.000   0.143   0.000    0.00
  19.600   15.78    2.98    0.12   0.000   0.143   0.000    0.00
  19.650   15.96    2.79   -0.02   0.000   0.143   0.000    0.00
  19.700   16.00    2.43   -0.38   0.000   0.143   0.000    0.00
  19.750   16.21    2.10   -0.36   0.000   0.143   0.000    0.00
  19.800   16.07    3.04   -0.10   0.000   0.143   0.000    0.00
  19.850   15.60    4.32    0.05   0.000   0.143   0.000    0.00
  19.900   15.62    4.88   -0.10   0.000   0.143   0.000    0.00
  19.950   16.06    5.14   -0.31   0.000   0.143   0.000    0.00
  20.000   15.62    3.56   -0.49   0.000   0.143   0.000    0.00
  20.050   15.80    3.17   -0.64   0.000   0.143   0.000    0.00
  20.100   15.97    2.29   -0.48   0.000   0.143   0.000    0.00
  20.150   16.00    2.83   -0.58   0.000   0.143   0.000    0.00
  20.200   15.85    2.62   -0.53   0.000   0.143   0.000    0.00
  20.250   16.07    3.27   -0.48   0.000   0.143   0.000    0.00
  20.300   15.95    2.00   -0.17   0.000   0.143   0.000    0.00
  20.350   16.33    2.11   -0.04   0.000   0.143   0.000    0.00
  20.400   16.44    2.70   -0.08   0.000   0.143   0.000    0.00
  20.450   16.32    2.68   -0.30   0.000   0.143   0.000    0.00
  20.500   16.35    1.89   -0.13   0.000   0.143   0.000    0.00
  20.550   16.34    2.31   -0.34   0.000   0.143   0.000    0.00
  20.600   16.38    1.61    0.05   0.000   0.143   0.000    0.00
  20.650   16.32    2.08    0.15   0.000   0.143   0.000    0.00
  20.700   16.05    3.01    0.11   0.000   0.143   0.000    0.00
  20.750   16.36    3.76    0.49   0.000   0.143   0.000    0.00
  20.800   16.79    3.07    0.88   0.000   0.143   0.000    0.00
  20.850   17.53    2.29    0.69   0.000   0.143   0.000    0.00
  20.900   17.35    2.77    0.75   0.000   0.143   0.000    0.00
  20.950   16.55    3.86    0.92   0.000   0.143   0.000    0.00
  21.000   16.46    5.18    0.94   0.000   0.143   0.000    0.00
  21.050   16.52    3.55    0.80   0.000   0.143   0.000    0.00
  21.100   16.37    2.71    0.69   0.000   0.143   0.000    0.00
  21.150   16.61    3.35    0.71   0.000   0.143   0.000    0.00
  21.200   16.67    3.35    0.94   0.000   0.143   0.000    0.00
  21.250   16.81    4.78    1.07   0.000   0.143   0.000    0.00
  21.300   16.57    5.86    1.17   0.000   0.143   0.000    0.00
  21.350   16.64    4.05    1.20   0.000   0.143   0.000    0.00
  21.400   16.47    4.78    1.27   0.000   0.143   0.000    0.00
  21.450   16.47    5.36    0.86   0.000   0.143   0.000    0.00
  21.500   16.50    5.76    0.66   0.000   0.143   0.000    0.00
  21.550   16.80    5.32    1.46   0.000   0.143   0.000    0.00
  21.600   17.14    5.01    1.51   0.000   0.143   0.000    0.00
  21.650   16.76    5.46    1.24   0.000   0.143   0.000    0.00
  21.700   16.82    5.31    1.15   0.000   0.143   0.000    0.00
  21.750   16.65    4.92    1.55   0.000   0.143   0.000    0.00
  21.800   16.58    5.61    1.37   0.000   0.143   0.000    0.00
  21.850   16.78    5.62    1.58   0.000   0.143   0.000    0.00
  21.900   16.60    6.87    1.52   0.000   0.143   0.000    0.00
  21.950   16.37    5.80    1.74   0.000   0.143   0.000    0.00
  22.000   16.65    5.64    1.24   0.000   0.143   0.000    0.00
  22.050   16.78    5.74    1.34   0.000   0.143   0.000    0.00
  22.100   16.43    6.50    1.35   0.000   0.143   0.000    0.00
  22.150   16.24    7.39    0.54   0.000   0.143   0.000    0.00
  22.200   16.24    8.23    0.34   0.000   0.143   0.000    0.00
  22.250   16.06    8.89    0.59   0.000   0.143   0.000    0.00
  22.300   15.58    8.17    0.24   0.000   0.143   0.000    0.00
  22.350   15.17    9.00   -0.05   0.000   0.143   0.000    0.00
  22.400   15.22    7.00    0.02   0.000   0.143   0.000    0.00
  22.450   15.09    6.79   -0.32   0.000   0.143   0.000    0.00
  22.500   15.04    6.19   -0.07   0.000   0.143   0.000    0.00
  22.550   15.19    5.30    0.11   0.000   0.143   0.000    0.00
  22.600   15.16    4.98    0.03   0.000   0.143   0.000    0.00
  22.650   15.11    3.84   -0.43   0.000   0.143   0.000    0.00
  22.700   15.12    1.71    0.05   0.000   0.143   0.000    0.00
  22.750   14.88    1.33   -0.34   0.000   0.143   0.000    0.00