! This hub-height wind-speed file was generated by TurbSim (v1.06.00, 21-Sep-2012) on 06-Dec-2015 at 18:54:15.
!
! The requested statistics for this data were:
!    Mean Total Wind Speed =   17.000 m/s
!
!   Time  HorSpd  WndDir  VerSpd  HorShr  VerShr  LnVShr  GstSpd
!  (sec)   (m/s)   (deg)   (m/s)     (-)     (-)     (-)   (m/s)
   0.000   22.97    2.42   -2.28   0.000   0.143   0.000    0.00
   0.050   22.70    1.58   -1.98   0.000   0.143   0.000    0.00
   0.100   22.35    1.31   -1.92   0.000   0.143   0.000    0.00
   0.150   23.17    2.96   -1.62   0.000   0.143   0.000    0.00
   0.200   23.10    2.91   -1.49   0.000   0.143   0.000    0.00
   0.250   22.92    3.67   -1.35   0.000   0.143   0.000    0.00
   0.300   22.55    3.41   -1.01   0.000   0.143   0.000    0.00
   0.350   22.53    3.00   -1.18   0.000   0.143   0.000    0.00
   0.400   22.62    2.30   -0.80   0.000   0.143   0.000    0.00
   0.450   22.87    3.05   -0.79   0.000   0.143   0.000    0.00
   0.500   22.49    3.19   -1.02   0.000   0.143   0.000    0.00
   0.550   22.10    1.95   -1.19   0.000   0.143   0.000    0.00
   0.600   22.21    1.11   -1.11   0.000   0.143   0.000    0.00
   0.650   22.33    0.09   -1.19   0.000   0.143   0.000    0.00
   0.700   22.32    0.79   -1.45   0.000   0.143   0.000    0.00
   0.750   22.37    1.37   -1.08   0.000   0.143   0.000    0.00
   0.800   22.48    1.41   -0.49   0.000   0.143   0.000    0.00
   0.850   22.27    1.46   -1.27   0.000   0.143   0.000    0.00
   0.900   22.55    1.34   -2.14   0.000   0.143   0.000    0.00
   0.950   22.69    1.60   -2.47   0.000   0.143   0.000    0.00
   1.000   22.04    0.90   -2.77   0.000   0.143   0.000    0.00
   1.050   21.58    2.40   -2.73   0.000   0.143   0.000    0.00
   1.100   21.51    2.04   -2.58   0.000   0.143   0.000    0.00
   1.150   21.40    3.57   -2.20   0.000   0.143   0.000    0.00
   1.200   20.73    4.03   -2.44   0.000   0.143   0.000    0.00
   1.250   20.90    3.75   -2.24   0.000   0.143   0.000    0.00
   1.300   21.02    4.87   -2.34   0.000   0.143   0.000    0.00
   1.350   20.85    4.58   -2.04   0.000   0.143   0.000    0.00
   1.400   21.30    5.00   -2.29   0.000   0.143   0.000    0.00
   1.450   21.66    4.62   -2.79   0.000   0.143   0.000    0.00
   1.500   21.86    4.66   -2.67   0.000   0.143   0.000    0.00
   1.550   22.00    4.10   -2.28   0.000   0.143   0.000    0.00
   1.600   21.86    3.48   -2.72   0.000   0.143   0.000    0.00
   1.650   22.10    4.15   -2.64   0.000   0.143   0.000    0.00
   1.700   22.08    4.89   -2.65   0.000   0.143   0.000    0.00
   1.750   21.89    4.71   -1.67   0.000   0.143   0.000    0.00
   1.800   21.90    3.94   -1.70   0.000   0.143   0.000    0.00
   1.850   21.68    3.82   -2.17   0.000   0.143   0.000    0.00
   1.900   22.01    2.36   -1.96   0.000   0.143   0.000    0.00
   1.950   21.79    2.70   -2.25   0.000   0.143   0.000    0.00
   2.000   21.50    4.21   -2.45   0.000   0.143   0.000    0.00
   2.050   21.40    4.50   -1.67   0.000   0.143   0.000    0.00
   2.100   21.26    3.13   -1.98   0.000   0.143   0.000    0.00
   2.150   20.77    2.62   -1.90   0.000   0.143   0.000    0.00
   2.200   20.29    4.13   -2.14   0.000   0.143   0.000    0.00
   2.250   20.94    4.63   -1.60   0.000   0.143   0.000    0.00
   2.300   21.43    3.38   -1.65   0.000   0.143   0.000    0.00
   2.350   21.51    4.53   -1.83   0.000   0.143   0.000    0.00
   2.400   21.38    4.39   -2.28   0.000   0.143   0.000    0.00
   2.450   21.58    3.28   -2.74   0.000   0.143   0.000    0.00
   2.500   22.06    3.42   -2.99   0.000   0.143   0.000    0.00
   2.550   21.67    3.21   -2.96   0.000   0.143   0.000    0.00
   2.600   21.20    3.13   -3.53   0.000   0.143   0.000    0.00
   2.650   20.86    3.27   -3.68   0.000   0.143   0.000    0.00
   2.700   20.88    4.41   -3.12   0.000   0.143   0.000    0.00
   2.750   21.15    6.48   -3.09   0.000   0.143   0.000    0.00
   2.800   21.80    6.98   -3.09   0.000   0.143   0.000    0.00
   2.850   21.32    6.10   -2.63   0.000   0.143   0.000    0.00
   2.900   21.59    5.32   -2.61   0.000   0.143   0.000    0.00
   2.950   21.39    4.04   -2.30   0.000   0.143   0.000    0.00
   3.000   21.23    4.70   -2.37   0.000   0.143   0.000    0.00
   3.050   21.25    4.51   -2.37   0.000   0.143   0.000    0.00
   3.100   20.74    3.56   -2.02   0.000   0.143   0.000    0.00
   3.150   20.90    3.19   -1.63   0.000   0.143   0.000    0.00
   3.200   20.66    3.47   -1.28   0.000   0.143   0.000    0.00
   3.250   20.60    3.97   -1.05   0.000   0.143   0.000    0.00
   3.300   20.88    4.44   -1.56   0.000   0.143   0.000    0.00
   3.350   20.35    3.67   -1.49   0.000   0.143   0.000    0.00
   3.400   20.25    2.21   -1.63   0.000   0.143   0.000    0.00
   3.450   20.75    2.09   -1.49   0.000   0.143   0.000    0.00
   3.500   20.44    1.79   -1.54   0.000   0.143   0.000    0.00
   3.550   20.13   -1.38   -1.60   0.000   0.143   0.000    0.00
   3.600   20.11   -1.22   -1.69   0.000   0.143   0.000    0.00
   3.650   20.78    0.21   -1.61   0.000   0.143   0.000    0.00
   3.700   20.19    1.92   -1.64   0.000   0.143   0.000    0.00
   3.750   20.42    3.02   -1.77   0.000   0.143   0.000    0.00
   3.800   20.76    4.56   -2.02   0.000   0.143   0.000    0.00
   3.850   20.30    5.36   -1.97   0.000   0.143   0.000    0.00
   3.900   20.23    4.09   -1.96   0.000   0.143   0.000    0.00
   3.950   20.03    4.83   -2.22   0.000   0.143   0.000    0.00
   4.000   19.14    5.16   -2.21   0.000   0.143   0.000    0.00
   4.050   19.19    3.21   -2.62   0.000   0.143   0.000    0.00
   4.100   19.39    1.83   -2.98   0.000   0.143   0.000    0.00
   4.150   20.01    2.82   -3.19   0.000   0.143   0.000    0.00
   4.200   20.04    2.46   -3.37   0.000   0.143   0.000    0.00
   4.250   19.70    3.65   -3.51   0.000   0.143   0.000    0.00
   4.300   19.76    2.77   -3.02   0.000   0.143   0.000    0.00
   4.350   19.52    3.80   -2.65   0.000   0.143   0.000    0.00
   4.400   19.73    4.59   -2.27   0.000   0.143   0.000    0.00
   4.450   20.21    6.43   -2.09   0.000   0.143   0.000    0.00
   4.500   20.31    6.52   -2.00   0.000   0.143   0.000    0.00
   4.550   19.89    5.47   -1.79   0.000   0.143   0.000    0.00
   4.600   19.52    7.60   -1.79   0.000   0.143   0.000    0.00
   4.650   19.17    8.01   -1.35   0.000   0.143   0.000    0.00
   4.700   19.51    8.90   -1.27   0.000   0.143   0.000    0.00
   4.750   19.17    6.91   -0.99   0.000   0.143   0.000    0.00
   4.800   19.36    6.86   -1.25   0.000   0.143   0.000    0.00
   4.850   19.43    6.43   -0.99   0.000   0.143   0.000    0.00
   4.900   18.66    4.06   -0.57   0.000   0.143   0.000    0.00
   4.950   18.44    5.53   -0.70   0.000   0.143   0.000    0.00
   5.000   18.56    7.13   -0.57   0.000   0.143   0.000    0.00
   5.050   18.38    7.06   -1.16   0.000   0.143   0.000    0.00
   5.100   18.39    5.94   -1.10   0.000   0.143   0.000    0.00
   5.150   18.00    5.13   -1.33   0.000   0.143   0.000    0.00
   5.200   18.19    6.65   -1.37   0.000   0.143   0.000    0.00
   5.250   18.04    5.88   -1.38   0.000   0.143   0.000    0.00
   5.300   18.58    4.96   -1.55   0.000   0.143   0.000    0.00
   5.350   18.84    4.78   -1.40   0.000   0.143   0.000    0.00
   5.400   19.09    3.73   -1.51   0.000   0.143   0.000    0.00
   5.450   19.22    3.79   -1.83   0.000   0.143   0.000    0.00
   5.500   19.23    1.71   -1.85   0.000   0.143   0.000    0.00
   5.550   19.45    1.80   -2.33   0.000   0.143   0.000    0.00
   5.600   20.09    1.18   -2.59   0.000   0.143   0.000    0.00
   5.650   19.94    0.70   -2.88   0.000   0.143   0.000    0.00
   5.700   20.24    2.40   -2.41   0.000   0.143   0.000    0.00
   5.750   20.18    3.26   -1.92   0.000   0.143   0.000    0.00
   5.800   19.77    4.21   -2.43   0.000   0.143   0.000    0.00
   5.850   19.72    4.25   -2.38   0.000   0.143   0.000    0.00
   5.900   20.07    3.59   -2.65   0.000   0.143   0.000    0.00
   5.950   20.15    3.02   -1.89   0.000   0.143   0.000    0.00
   6.000   20.56    3.73   -1.90   0.000   0.143   0.000    0.00
   6.050   20.61    3.63   -1.93   0.000   0.143   0.000    0.00
   6.100   20.34    3.85   -1.85   0.000   0.143   0.000    0.00
   6.150   20.44    5.04   -1.97   0.000   0.143   0.000    0.00
   6.200   20.37    4.85   -2.14   0.000   0.143   0.000    0.00
   6.250   20.51    1.64   -2.06   0.000   0.143   0.000    0.00
   6.300   20.55    1.42   -2.10   0.000   0.143   0.000    0.00
   6.350   20.58    0.01   -2.08   0.000   0.143   0.000    0.00
   6.400   20.49    1.29   -1.94   0.000   0.143   0.000    0.00
   6.450   20.62    1.45   -1.71   0.000   0.143   0.000    0.00
   6.500   20.66    0.77   -1.81   0.000   0.143   0.000    0.00
   6.550   20.52    1.33   -2.04   0.000   0.143   0.000    0.00
   6.600   20.58    2.00   -2.15   0.000   0.143   0.000    0.00
   6.650   20.80   -0.11   -1.93   0.000   0.143   0.000    0.00
   6.700   21.15   -1.15   -1.74   0.000   0.143   0.000    0.00
   6.750   21.58   -1.81   -1.20   0.000   0.143   0.000    0.00
   6.800   21.11   -2.39   -0.89   0.000   0.143   0.000    0.00
   6.850   21.27   -3.19   -0.73   0.000   0.143   0.000    0.00
   6.900   20.63   -1.96   -1.07   0.000   0.143   0.000    0.00
   6.950   20.44   -2.62   -0.88   0.000   0.143   0.000    0.00
   7.000   20.47   -0.93   -0.78   0.000   0.143   0.000    0.00
   7.050   20.56    0.85   -0.37   0.000   0.143   0.000    0.00
   7.100   20.62   -0.86   -1.40   0.000   0.143   0.000    0.00
   7.150   20.31   -1.08   -1.21   0.000   0.143   0.000    0.00
   7.200   20.23   -0.59   -1.04   0.000   0.143   0.000    0.00
   7.250   20.33    1.37   -1.52   0.000   0.143   0.000    0.00
   7.300   20.28    2.96   -1.58   0.000   0.143   0.000    0.00
   7.350   19.85    2.16   -2.04   0.000   0.143   0.000    0.00
   7.400   20.41    3.81   -2.08   0.000   0.143   0.000    0.00
   7.450   20.66    2.96   -2.33   0.000   0.143   0.000    0.00
   7.500   20.81    1.06   -1.13   0.000   0.143   0.000    0.00
   7.550   21.35    1.23   -1.11   0.000   0.143   0.000    0.00
   7.600   21.27    2.11   -1.17   0.000   0.143   0.000    0.00
   7.650   21.19    1.35   -1.31   0.000   0.143   0.000    0.00
   7.700   20.87    2.50   -0.68   0.000   0.143   0.000    0.00
   7.750   21.11    2.80   -0.76   0.000   0.143   0.000    0.00
   7.800   20.84    1.66   -1.03   0.000   0.143   0.000    0.00
   7.850   20.86    1.55   -0.85   0.000   0.143   0.000    0.00
   7.900   20.92    1.04   -1.35   0.000   0.143   0.000    0.00
   7.950   20.34    1.95   -1.14   0.000   0.143   0.000    0.00
   8.000   20.26    3.43   -1.68   0.000   0.143   0.000    0.00
   8.050   20.53    4.26   -0.91   0.000   0.143   0.000    0.00
   8.100   20.61    3.53   -0.49   0.000   0.143   0.000    0.00
   8.150   20.30    2.87   -1.26   0.000   0.143   0.000    0.00
   8.200   19.90    3.93   -1.40   0.000   0.143   0.000    0.00
   8.250   19.93    5.14   -1.58   0.000   0.143   0.000    0.00
   8.300   20.02    5.59   -2.21   0.000   0.143   0.000    0.00
   8.350   20.00    4.96   -2.30   0.000   0.143   0.000    0.00
   8.400   19.97    3.76   -2.48   0.000   0.143   0.000    0.00
   8.450   19.97    3.89   -1.93   0.000   0.143   0.000    0.00
   8.500   20.63    5.27   -1.43   0.000   0.143   0.000    0.00
   8.550   20.86    5.30   -1.87   0.000   0.143   0.000    0.00
   8.600   20.59    4.63   -1.90   0.000   0.143   0.000    0.00
   8.650   20.70    4.84   -2.10   0.000   0.143   0.000    0.00
   8.700   20.38    4.46   -1.97   0.000   0.143   0.000    0.00
   8.750   20.92    4.75   -1.55   0.000   0.143   0.000    0.00
   8.800   20.50    5.10   -1.55   0.000   0.143   0.000    0.00
   8.850   20.09    5.46   -1.33   0.000   0.143   0.000    0.00
   8.900   19.87    3.45   -1.14   0.000   0.143   0.000    0.00
   8.950   19.63    2.98   -1.28   0.000   0.143   0.000    0.00
   9.000   19.72    1.23   -1.60   0.000   0.143   0.000    0.00
   9.050   20.25    0.79   -2.23   0.000   0.143   0.000    0.00
   9.100   20.38    1.99   -1.96   0.000   0.143   0.000    0.00
   9.150   20.30    1.87   -1.73   0.000   0.143   0.000    0.00
   9.200   20.46    0.86   -1.14   0.000   0.143   0.000    0.00
   9.250   20.70    2.00   -1.18   0.000   0.143   0.000    0.00
   9.300   20.59    1.81   -1.56   0.000   0.143   0.000    0.00
   9.350   20.31    1.52   -1.71   0.000   0.143   0.000    0.00
   9.400   20.34    2.50   -0.75   0.000   0.143   0.000    0.00
   9.450   20.41    2.81   -0.70   0.000   0.143   0.000    0.00
   9.500   20.66    4.27   -0.90   0.000   0.143   0.000    0.00
   9.550   20.07    3.45   -0.23   0.000   0.143   0.000    0.00
   9.600   20.22    1.45   -0.79   0.000   0.143   0.000    0.00
   9.650   20.17    3.33   -1.56   0.000   0.143   0.000    0.00
   9.700   20.18    3.38   -1.32   0.000   0.143   0.000    0.00
   9.750   20.16    2.34   -1.71   0.000   0.143   0.000    0.00
   9.800   19.82    2.21   -1.45   0.000   0.143   0.000    0.00
   9.850   20.05    2.09   -1.46   0.000   0.143   0.000    0.00
   9.900   20.09    1.89   -2.38   0.000   0.143   0.000    0.00
   9.950   20.00    0.70   -2.40   0.000   0.143   0.000    0.00
  10.000   20.15    0.03   -2.39   0.000   0.143   0.000    0.00
  10.050   20.36    0.70   -2.29   0.000   0.143   0.000    0.00
  10.100   20.66    1.41   -2.81   0.000   0.143   0.000    0.00
  10.150   20.80    1.98   -2.60   0.000   0.143   0.000    0.00
  10.200   20.22    2.20   -1.78   0.000   0.143   0.000    0.00
  10.250   20.30    2.30   -2.39   0.000   0.143   0.000    0.00
  10.300   20.46    2.34   -2.76   0.000   0.143   0.000    0.00
  10.350   20.01    4.22   -2.42   0.000   0.143   0.000    0.00
  10.400   19.37    5.02   -2.66   0.000   0.143   0.000    0.00
  10.450   19.43    5.45   -2.40   0.000   0.143   0.000    0.00
  10.500   19.77    4.92   -2.50   0.000   0.143   0.000    0.00
  10.550   20.18    4.55   -2.08   0.000   0.143   0.000    0.00
  10.600   20.28    3.92   -2.06   0.000   0.143   0.000    0.00
  10.650   20.56    5.33   -2.17   0.000   0.143   0.000    0.00
  10.700   20.76    6.21   -1.79   0.000   0.143   0.000    0.00
  10.750   20.66    6.33   -1.57   0.000   0.143   0.000    0.00
  10.800   20.22    5.32   -1.28   0.000   0.143   0.000    0.00
  10.850   19.95    5.10   -1.19   0.000   0.143   0.000    0.00
  10.900   19.97    4.67   -1.13   0.000   0.143   0.000    0.00
  10.950   19.88    3.88   -0.86   0.000   0.143   0.000    0.00
  11.000   19.68    3.82   -1.10   0.000   0.143   0.000    0.00
  11.050   19.69    2.82   -0.68   0.000   0.143   0.000    0.00
  11.100   19.19    3.61   -0.77   0.000   0.143   0.000    0.00
  11.150   19.59    2.81   -1.11   0.000   0.143   0.000    0.00
  11.200   19.63    1.73   -1.29   0.000   0.143   0.000    0.00
  11.250   19.39    1.17   -1.08   0.000   0.143   0.000    0.00
  11.300   18.97    0.21   -0.83   0.000   0.143   0.000    0.00
  11.350   19.29   -0.12   -1.01   0.000   0.143   0.000    0.00
  11.400   18.87   -2.38   -1.07   0.000   0.143   0.000    0.00
  11.450   18.99   -4.12   -1.25   0.000   0.143   0.000    0.00
  11.500   18.75   -3.17   -1.11   0.000   0.143   0.000    0.00
  11.550   19.31   -1.41   -1.60   0.000   0.143   0.000    0.00
  11.600   19.85   -2.47   -1.17   0.000   0.143   0.000    0.00
  11.650   19.79   -0.83   -1.12   0.000   0.143   0.000    0.00
  11.700   19.22   -0.94   -0.86   0.000   0.143   0.000    0.00
  11.750   19.05    1.36   -0.36   0.000   0.143   0.000    0.00
  11.800   18.72    2.90   -0.51   0.000   0.143   0.000    0.00
  11.850   18.65    0.96    0.02   0.000   0.143   0.000    0.00
  11.900   19.49   -1.12   -0.09   0.000   0.143   0.000    0.00
  11.950   19.79   -2.08   -0.11   0.000   0.143   0.000    0.00
  12.000   19.69   -0.54   -0.53   0.000   0.143   0.000    0.00
  12.050   19.14    0.22   -0.27   0.000   0.143   0.000    0.00
  12.100   19.23   -0.15   -0.56   0.000   0.143   0.000    0.00
  12.150   19.60   -0.40   -1.18   0.000   0.143   0.000    0.00
  12.200   19.82    0.43   -1.06   0.000   0.143   0.000    0.00
  12.250   19.75   -0.51   -1.76   0.000   0.143   0.000    0.00
  12.300   19.88   -1.27   -2.11   0.000   0.143   0.000    0.00
  12.350   19.78   -1.55   -2.18   0.000   0.143   0.000    0.00
  12.400   19.50   -1.05   -1.88   0.000   0.143   0.000    0.00
  12.450   19.41   -1.32   -1.70   0.000   0.143   0.000    0.00
  12.500   19.48   -0.71   -1.41   0.000   0.143   0.000    0.00
  12.550   19.60    0.66   -1.66   0.000   0.143   0.000    0.00
  12.600   19.26    1.62   -1.19   0.000   0.143   0.000    0.00
  12.650   19.10   -0.74   -2.10   0.000   0.143   0.000    0.00
  12.700   18.88   -0.50   -2.43   0.000   0.143   0.000    0.00
  12.750   18.50    1.37   -2.66   0.000   0.143   0.000    0.00
  12.800   18.54    0.33   -2.35   0.000   0.143   0.000    0.00
  12.850   18.81    0.60   -2.65   0.000   0.143   0.000    0.00
  12.900   18.94    0.59   -2.74   0.000   0.143   0.000    0.00
  12.950   19.30   -1.14   -2.64   0.000   0.143   0.000    0.00
  13.000   19.78   -2.27   -2.44   0.000   0.143   0.000    0.00
  13.050   20.32   -0.49   -2.42   0.000   0.143   0.000    0.00
  13.100   20.47   -0.46   -2.23   0.000   0.143   0.000    0.00
  13.150   20.22   -2.24   -2.31   0.000   0.143   0.000    0.00
  13.200   19.77   -3.25   -2.04   0.000   0.143   0.000    0.00
  13.250   19.79   -4.16   -1.85   0.000   0.143   0.000    0.00
  13.300   19.98   -2.65   -1.49   0.000   0.143   0.000    0.00
  13.350   19.57   -4.34   -1.08   0.000   0.143   0.000    0.00
  13.400   19.49   -3.14   -0.87   0.000   0.143   0.000    0.00
  13.450   20.25   -1.25   -1.17   0.000   0.143   0.000    0.00
  13.500   20.08   -0.19   -1.52   0.000   0.143   0.000    0.00
  13.550   19.57   -1.08   -1.10   0.000   0.143   0.000    0.00
  13.600   19.33   -0.17   -0.70   0.000   0.143   0.000    0.00
  13.650   19.63   -0.18   -0.78   0.000   0.143   0.000    0.00
  13.700   19.92    1.84   -0.20   0.000   0.143   0.000    0.00
  13.750   19.73    1.54   -0.27   0.000   0.143   0.000    0.00
  13.800   19.80    2.53    0.09   0.000   0.143   0.000    0.00
  13.850   19.72    3.64   -0.13   0.000   0.143   0.000    0.00
  13.900   19.84    3.18   -0.53   0.000   0.143   0.000    0.00
  13.950   19.80    3.46   -0.85   0.000   0.143   0.000    0.00
  14.000   19.60    3.23   -0.01   0.000   0.143   0.000    0.00
  14.050   19.64    3.00    0.51   0.000   0.143   0.000    0.00
  14.100   19.93    2.99   -0.20   0.000   0.143   0.000    0.00
  14.150   19.51    3.20   -0.17   0.000   0.143   0.000    0.00
  14.200   19.98    3.85   -0.29   0.000   0.143   0.000    0.00
  14.250   19.63    5.16    0.19   0.000   0.143   0.000    0.00
  14.300   20.13    4.97   -0.28   0.000   0.143   0.000    0.00
  14.350   19.98    4.36   -0.41   0.000   0.143   0.000    0.00
  14.400   19.47    4.57   -0.21   0.000   0.143   0.000    0.00
  14.450   18.79    3.57   -0.32   0.000   0.143   0.000    0.00
  14.500   19.12    1.41   -0.09   0.000   0.143   0.000    0.00
  14.550   19.28   -0.36   -0.05   0.000   0.143   0.000    0.00
  14.600   20.00   -0.88   -0.10   0.000   0.143   0.000    0.00
  14.650   19.55    1.79   -0.30   0.000   0.143   0.000    0.00
  14.700   19.27    2.50   -0.54   0.000   0.143   0.000    0.00
  14.750   19.37    3.09   -0.29   0.000   0.143   0.000    0.00
  14.800   19.37    3.70    0.31   0.000   0.143   0.000    0.00
  14.850   18.79    3.15    0.76   0.000   0.143   0.000    0.00
  14.900   18.72    3.20    0.85   0.000   0.143   0.000    0.00
  14.950   18.47    2.14    0.62   0.000   0.143   0.000    0.00
  15.000   18.51    1.85    0.53   0.000   0.143   0.000    0.00
  15.050   18.07    3.65    0.27   0.000   0.143   0.000    0.00
  15.100   18.31    2.86   -0.29   0.000   0.143   0.000    0.00
  15.150   18.25    3.99   -0.17   0.000   0.143   0.000    0.00
  15.200   18.39    3.02   -0.05   0.000   0.143   0.000    0.00
  15.250   18.42    3.02   -0.20   0.000   0.143   0.000    0.00
  15.300   18.24    3.67    0.30   0.000   0.143   0.000    0.00
  15.350   17.92    3.88    0.74   0.000   0.143   0.000    0.00
  15.400   17.84    3.76    1.09   0.000   0.143   0.000    0.00
  15.450   17.24    5.07    1.33   0.000   0.143   0.000    0.00
  15.500   16.91    5.21    1.77   0.000   0.143   0.000    0.00
  15.550   16.90    4.05    2.47   0.000   0.143   0.000    0.00
  15.600   17.21    4.95    2.47   0.000   0.143   0.000    0.00
  15.650   17.55    5.85    2.47   0.000   0.143   0.000    0.00
  15.700   17.50    5.12    2.49   0.000   0.143   0.000    0.00
  15.750   18.17    4.05    2.52   0.000   0.143   0.000    0.00
  15.800   18.04    4.05    2.39   0.000   0.143   0.000    0.00
  15.850   18.04    3.83    2.58   0.000   0.143   0.000    0.00
  15.900   17.96    3.49    2.67   0.000   0.143   0.000    0.00
  15.950   17.73    2.87    2.58   0.000   0.143   0.000    0.00
  16.000   17.41    2.60    2.92   0.000   0.143   0.000    0.00
  16.050   17.38   -0.03    2.98   0.000   0.143   0.000    0.00
  16.100   17.55    2.90    2.99   0.000   0.143   0.000    0.00
  16.150   17.65    2.19    2.02   0.000   0.143   0.000    0.00
  16.200   17.80    2.13    2.43   0.000   0.143   0.000    0.00
  16.250   17.96    2.53    2.66   0.000   0.143   0.000    0.00
  16.300   17.89    1.35    2.28   0.000   0.143   0.000    0.00
  16.350   17.54    2.23    2.63   0.000   0.143   0.000    0.00
  16.400   17.44    4.91    2.64   0.000   0.143   0.000    0.00
  16.450   17.89    2.14    2.15   0.000   0.143   0.000    0.00
  16.500   18.10    2.15    2.05   0.000   0.143   0.000    0.00
  16.550   17.94    3.70    2.59   0.000   0.143   0.000    0.00
  16.600   18.15    4.06    2.28   0.000   0.143   0.000    0.00
  16.650   17.65    4.71    2.23   0.000   0.143   0.000    0.00
  16.700   17.97    5.49    2.19   0.000   0.143   0.000    0.00
  16.750   18.26    5.23    1.53   0.000   0.143   0.000    0.00
  16.800   18.50    4.82    1.54   0.000   0.143   0.000    0.00
  16.850   18.30    4.83    0.95   0.000   0.143   0.000    0.00
  16.900   18.27    3.77    0.61   0.000   0.143   0.000    0.00
  16.950   18.54    3.93    0.09   0.000   0.143   0.000    0.00
  17.000   18.44    4.38   -0.93   0.000   0.143   0.000    0.00
  17.050   18.63    6.47   -1.36   0.000   0.143   0.000    0.00
  17.100   18.86    7.75   -0.61   0.000   0.143   0.000    0.00
  17.150   18.71    7.60    0.52   0.000   0.143   0.000    0.00
  17.200   18.41    6.16    0.38   0.000   0.143   0.000    0.00
  17.250   18.35    7.42    0.12   0.000   0.143   0.000    0.00
  17.300   18.29    7.39    0.17   0.000   0.143   0.000    0.00
  17.350   18.60    8.31   -0.23   0.000   0.143   0.000    0.00
  17.400   18.51    8.71   -0.51   0.000   0.143   0.000    0.00
  17.450   18.45    9.74   -0.51   0.000   0.143   0.000    0.00
  17.500   18.80    9.93   -0.29   0.000   0.143   0.000    0.00
  17.550   18.59    9.87   -0.07   0.000   0.143   0.000    0.00
  17.600   18.54    9.17   -0.58   0.000   0.143   0.000    0.00
  17.650   18.18    9.83   -0.75   0.000   0.143   0.000    0.00
  17.700   18.29    8.40   -0.64   0.000   0.143   0.000    0.00
  17.750   18.04    8.14   -0.61   0.000   0.143   0.000    0.00
  17.800   17.53    8.73   -0.85   0.000   0.143   0.000    0.00
  17.850   17.93    8.55   -0.40   0.000   0.143   0.000    0.00
  17.900   17.89    8.09   -0.47   0.000   0.143   0.000    0.00
  17.950   17.26    8.82    0.12   0.000   0.143   0.000    0.00
  18.000   17.16    5.51   -0.03   0.000   0.143   0.000    0.00
  18.050   17.00    3.58   -0.25   0.000   0.143   0.000    0.00
  18.100   17.14    2.98   -0.42   0.000   0.143   0.000    0.00
  18.150   17.22    3.15    0.38   0.000   0.143   0.000    0.00
  18.200   17.42    2.58    0.19   0.000   0.143   0.000    0.00
  18.250   17.29    2.21    0.04   0.000   0.143   0.000    0.00
  18.300   17.43    2.93   -0.15   0.000   0.143   0.000    0.00
  18.350   17.35    3.83    0.10   0.000   0.143   0.000    0.00
  18.400   17.39    4.84   -0.17   0.000   0.143   0.000    0.00
  18.450   17.21    2.71   -0.48   0.000   0.143   0.000    0.00
  18.500   17.36    2.33   -0.18   0.000   0.143   0.000    0.00
  18.550   17.63    1.73   -0.59   0.000   0.143   0.000    0.00
  18.600   18.14    0.75   -0.93   0.000   0.143   0.000    0.00
  18.650   18.45    1.20   -0.87   0.000   0.143   0.000    0.00
  18.700   18.14    1.00   -0.97   0.000   0.143   0.000    0.00
  18.750   18.05   -2.37    0.11   0.000   0.143   0.000    0.00
  18.800   17.66   -3.80   -0.45   0.000   0.143   0.000    0.00
  18.850   17.38   -0.57   -0.48   0.000   0.143   0.000    0.00
  18.900   17.17   -1.95   -0.02   0.000   0.143   0.000    0.00
  18.950   17.64   -0.27    0.31   0.000   0.143   0.000    0.00
  19.000   18.06    0.02    0.14   0.000   0.143   0.000    0.00
  19.050   17.45    0.48    0.16   0.000   0.143   0.000    0.00
  19.100   17.26    0.89    0.26   0.000   0.143   0.000    0.00
  19.150   17.78    1.47    0.15   0.000   0.143   0.000    0.00
  19.200   18.14    1.23    0.23   0.000   0.143   0.000    0.00
  19.250   18.91    1.82    0.33   0.000   0.143   0.000    0.00
  19.300   18.32    1.37    0.03   0.000   0.143   0.000    0.00
  19.350   17.95    0.83    0.35   0.000   0.143   0.000    0.00
  19.400   18.08    0.13    0.73   0.000   0.143   0.000    0.00
  19.450   18.11   -0.34    0.25   0.000   0.143   0.000    0.00
  19.500   17.98    1.52    0.08   0.000   0.143   0.000    0.00
  19.550   18.06    1.37   -0.37   0.000   0.143   0.000    0.00
  19.600   17.75    2.79    0.11   0.000   0.143   0.000    0.00
  19.650   17.95    2.59   -0.04   0.000   0.143   0.000    0.00
  19.700   18.00    2.22   -0.48   0.000   0.143   0.000    0.00
  19.750   18.25    1.88   -0.45   0.000   0.143   0.000    0.00
  19.800   18.09    2.85   -0.15   0.000   0.143   0.000    0.00
  19.850   17.53    4.20    0.03   0.000   0.143   0.000    0.00
  19.900   17.55    4.79   -0.15   0.000   0.143   0.000    0.00
  19.950   18.08    5.06   -0.40   0.000   0.143   0.000    0.00
  20.000   17.55    3.39   -0.60   0.000   0.143   0.000    0.00
  20.050   17.77    2.98   -0.79   0.000   0.143   0.000    0.00
  20.100   17.97    2.06   -0.59   0.000   0.143   0.000    0.00
  20.150   18.01    2.63   -0.72   0.000   0.143   0.000    0.00
  20.200   17.83    2.41   -0.66   0.000   0.143   0.000    0.00
  20.250   18.09    3.10   -0.60   0.000   0.143   0.000    0.00
  20.300   17.94    1.76   -0.24   0.000   0.143   0.000    0.00
  20.350   18.40    1.87   -0.08   0.000   0.143   0.000    0.00
  20.400   18.53    2.50   -0.14   0.000   0.143   0.000    0.00
  20.450   18.39    2.47   -0.39   0.000   0.143   0.000    0.00
  20.500   18.42    1.65   -0.19   0.000   0.143   0.000    0.00
  20.550   18.41    2.08   -0.44   0.000   0.143   0.000    0.00
  20.600   18.46    1.35    0.01   0.000   0.143   0.000    0.00
  20.650   18.38    1.84    0.14   0.000   0.143   0.000    0.00
  20.700   18.07    2.81    0.09   0.000   0.143   0.000    0.00
  20.750   18.43    3.60    0.54   0.000   0.143   0.000    0.00
  20.800   18.94    2.88    0.99   0.000   0.143   0.000    0.00
  20.850   19.82    2.07    0.76   0.000   0.143   0.000    0.00
  20.900   19.60    2.58    0.84   0.000   0.143   0.000    0.00
  20.950   18.66    3.71    1.04   0.000   0.143   0.000    0.00
  21.000   18.55    5.08    1.06   0.000   0.143   0.000    0.00
  21.050   18.62    3.38    0.90   0.000   0.143   0.000    0.00
  21.100   18.45    2.49    0.76   0.000   0.143   0.000    0.00
  21.150   18.73    3.17    0.78   0.000   0.143   0.000    0.00
  21.200   18.80    3.18    1.05   0.000   0.143   0.000    0.00
  21.250   18.97    4.67    1.21   0.000   0.143   0.000    0.00
  21.300   18.68    5.79    1.33   0.000   0.143   0.000    0.00
  21.350   18.76    3.90    1.36   0.000   0.143   0.000    0.00
  21.400   18.56    4.67    1.43   0.000   0.143   0.000    0.00
  21.450   18.56    5.27    0.96   0.000   0.143   0.000    0.00
  21.500   18.60    5.69    0.71   0.000   0.143   0.000    0.00
  21.550   18.95    5.23    1.66   0.000   0.143   0.000    0.00
  21.600   19.35    4.91    1.72   0.000   0.143   0.000    0.00
  21.650   18.91    5.38    1.40   0.000   0.143   0.000    0.00
  21.700   18.97    5.22    1.29   0.000   0.143   0.000    0.00
  21.750   18.78    4.81    1.76   0.000   0.143   0.000    0.00
  21.800   18.69    5.53    1.56   0.000   0.143   0.000    0.00
  21.850   18.93    5.54    1.79   0.000   0.143   0.000    0.00
  21.900   18.72    6.85    1.73   0.000   0.143   0.000    0.00
  21.950   18.45    5.73    1.99   0.000   0.143   0.000    0.00
  22.000   18.78    5.56    1.40   0.000   0.143   0.000    0.00
  22.050   18.93    5.66    1.52   0.000   0.143   0.000    0.00
  22.100   18.52    6.46    1.54   0.000   0.143   0.000    0.00
  22.150   18.29    7.39    0.57   0.000   0.143   0.000    0.00
  22.200   18.29    8.27    0.33   0.000   0.143   0.000    0.00
  22.250   18.08    8.97    0.64   0.000   0.143   0.000    0.00
  22.300   17.52    8.22    0.23   0.000   0.143   0.000    0.00
  22.350   17.03    9.08   -0.12   0.000   0.143   0.000    0.00
  22.400   17.08    6.99   -0.03   0.000   0.143   0.000    0.00
  22.450   16.94    6.76   -0.43   0.000   0.143   0.000    0.00
  22.500   16.88    6.13   -0.14   0.000   0.143   0.000    0.00
  22.550   17.05    5.19    0.07   0.000   0.143   0.000    0.00
  22.600   17.02    4.85   -0.02   0.000   0.143   0.000    0.00
  22.650   16.97    3.66   -0.56   0.000   0.143   0.000    0.00
  22.700   16.97    1.42    0.00   0.000   0.143   0.000    0.00
  22.750   16.69    1.02   -0.46   0.000   0.143   0.000    0.00