! This hub-height wind-speed file was generated by TurbSim (v1.06.00, 21-Sep-2012) on 07-Dec-2015 at 15:40:43.
!
! The requested statistics for this data were:
!    Mean Total Wind Speed =   11.500 m/s
!
!   Time  HorSpd  WndDir  VerSpd  HorShr  VerShr  LnVShr  GstSpd
!  (sec)   (m/s)   (deg)   (m/s)     (-)     (-)     (-)   (m/s)
   0.000   15.51    3.04   -1.57   0.000   0.143   0.000    0.00
   0.050   15.34    2.31   -1.40   0.000   0.143   0.000    0.00
   0.100   15.13    2.08   -1.37   0.000   0.143   0.000    0.00
   0.150   15.63    3.51   -1.19   0.000   0.143   0.000    0.00
   0.200   15.58    3.46   -1.11   0.000   0.143   0.000    0.00
   0.250   15.48    4.14   -1.03   0.000   0.143   0.000    0.00
   0.300   15.26    3.92   -0.83   0.000   0.143   0.000    0.00
   0.350   15.24    3.55   -0.93   0.000   0.143   0.000    0.00
   0.400   15.30    2.94   -0.71   0.000   0.143   0.000    0.00
   0.450   15.45    3.59   -0.70   0.000   0.143   0.000    0.00
   0.500   15.22    3.72   -0.84   0.000   0.143   0.000    0.00
   0.550   14.99    2.64   -0.94   0.000   0.143   0.000    0.00
   0.600   15.05    1.90   -0.90   0.000   0.143   0.000    0.00
   0.650   15.12    1.01   -0.95   0.000   0.143   0.000    0.00
   0.700   15.12    1.62   -1.11   0.000   0.143   0.000    0.00
   0.750   15.15    2.13   -0.89   0.000   0.143   0.000    0.00
   0.800   15.21    2.16   -0.54   0.000   0.143   0.000    0.00
   0.850   15.09    2.21   -1.01   0.000   0.143   0.000    0.00
   0.900   15.26    2.10   -1.53   0.000   0.143   0.000    0.00
   0.950   15.34    2.32   -1.72   0.000   0.143   0.000    0.00
   1.000   14.95    1.72   -1.91   0.000   0.143   0.000    0.00
   1.050   14.68    3.06   -1.89   0.000   0.143   0.000    0.00
   1.100   14.64    2.74   -1.80   0.000   0.143   0.000    0.00
   1.150   14.57    4.08   -1.58   0.000   0.143   0.000    0.00
   1.200   14.18    4.49   -1.73   0.000   0.143   0.000    0.00
   1.250   14.28    4.25   -1.61   0.000   0.143   0.000    0.00
   1.300   14.35    5.22   -1.67   0.000   0.143   0.000    0.00
   1.350   14.25    4.97   -1.49   0.000   0.143   0.000    0.00
   1.400   14.52    5.33   -1.64   0.000   0.143   0.000    0.00
   1.450   14.73    4.99   -1.94   0.000   0.143   0.000    0.00
   1.500   14.85    5.02   -1.87   0.000   0.143   0.000    0.00
   1.550   14.93    4.54   -1.64   0.000   0.143   0.000    0.00
   1.600   14.85    4.00   -1.90   0.000   0.143   0.000    0.00
   1.650   14.99    4.58   -1.85   0.000   0.143   0.000    0.00
   1.700   14.98    5.22   -1.86   0.000   0.143   0.000    0.00
   1.750   14.86    5.07   -1.28   0.000   0.143   0.000    0.00
   1.800   14.87    4.39   -1.30   0.000   0.143   0.000    0.00
   1.850   14.74    4.30   -1.58   0.000   0.143   0.000    0.00
   1.900   14.93    3.01   -1.45   0.000   0.143   0.000    0.00
   1.950   14.80    3.32   -1.63   0.000   0.143   0.000    0.00
   2.000   14.63    4.64   -1.75   0.000   0.143   0.000    0.00
   2.050   14.58    4.89   -1.29   0.000   0.143   0.000    0.00
   2.100   14.49    3.70   -1.48   0.000   0.143   0.000    0.00
   2.150   14.20    3.27   -1.43   0.000   0.143   0.000    0.00
   2.200   13.92    4.59   -1.58   0.000   0.143   0.000    0.00
   2.250   14.30    5.02   -1.25   0.000   0.143   0.000    0.00
   2.300   14.59    3.91   -1.28   0.000   0.143   0.000    0.00
   2.350   14.64    4.91   -1.39   0.000   0.143   0.000    0.00
   2.400   14.56    4.79   -1.66   0.000   0.143   0.000    0.00
   2.450   14.68    3.83   -1.93   0.000   0.143   0.000    0.00
   2.500   14.96    3.93   -2.08   0.000   0.143   0.000    0.00
   2.550   14.73    3.76   -2.06   0.000   0.143   0.000    0.00
   2.600   14.45    3.70   -2.40   0.000   0.143   0.000    0.00
   2.650   14.25    3.83   -2.50   0.000   0.143   0.000    0.00
   2.700   14.26    4.82   -2.17   0.000   0.143   0.000    0.00
   2.750   14.42    6.62   -2.15   0.000   0.143   0.000    0.00
   2.800   14.81    7.05   -2.14   0.000   0.143   0.000    0.00
   2.850   14.53    6.28   -1.88   0.000   0.143   0.000    0.00
   2.900   14.69    5.60   -1.86   0.000   0.143   0.000    0.00
   2.950   14.56    4.48   -1.67   0.000   0.143   0.000    0.00
   3.000   14.47    5.06   -1.72   0.000   0.143   0.000    0.00
   3.050   14.48    4.90   -1.72   0.000   0.143   0.000    0.00
   3.100   14.18    4.07   -1.52   0.000   0.143   0.000    0.00
   3.150   14.27    3.75   -1.28   0.000   0.143   0.000    0.00
   3.200   14.13    4.00   -1.07   0.000   0.143   0.000    0.00
   3.250   14.09    4.43   -0.93   0.000   0.143   0.000    0.00
   3.300   14.26    4.83   -1.24   0.000   0.143   0.000    0.00
   3.350   13.94    4.17   -1.20   0.000   0.143   0.000    0.00
   3.400   13.88    2.91   -1.28   0.000   0.143   0.000    0.00
   3.450   14.18    2.79   -1.20   0.000   0.143   0.000    0.00
   3.500   13.99    2.54   -1.23   0.000   0.143   0.000    0.00
   3.550   13.80   -0.19   -1.27   0.000   0.143   0.000    0.00
   3.600   13.79   -0.06   -1.32   0.000   0.143   0.000    0.00
   3.650   14.19    1.15   -1.27   0.000   0.143   0.000    0.00
   3.700   13.84    2.66   -1.29   0.000   0.143   0.000    0.00
   3.750   13.98    3.60   -1.37   0.000   0.143   0.000    0.00
   3.800   14.18    4.93   -1.51   0.000   0.143   0.000    0.00
   3.850   13.92    5.63   -1.49   0.000   0.143   0.000    0.00
   3.900   13.87    4.53   -1.48   0.000   0.143   0.000    0.00
   3.950   13.75    5.18   -1.64   0.000   0.143   0.000    0.00
   4.000   13.22    5.47   -1.64   0.000   0.143   0.000    0.00
   4.050   13.25    3.79   -1.88   0.000   0.143   0.000    0.00
   4.100   13.37    2.60   -2.09   0.000   0.143   0.000    0.00
   4.150   13.74    3.44   -2.21   0.000   0.143   0.000    0.00
   4.200   13.75    3.12   -2.32   0.000   0.143   0.000    0.00
   4.250   13.56    4.16   -2.41   0.000   0.143   0.000    0.00
   4.300   13.59    3.40   -2.11   0.000   0.143   0.000    0.00
   4.350   13.45    4.30   -1.90   0.000   0.143   0.000    0.00
   4.400   13.57    4.97   -1.67   0.000   0.143   0.000    0.00
   4.450   13.86    6.56   -1.56   0.000   0.143   0.000    0.00
   4.500   13.92    6.64   -1.50   0.000   0.143   0.000    0.00
   4.550   13.67    5.72   -1.38   0.000   0.143   0.000    0.00
   4.600   13.45    7.57   -1.38   0.000   0.143   0.000    0.00
   4.650   13.24    7.91   -1.12   0.000   0.143   0.000    0.00
   4.700   13.44    8.68   -1.07   0.000   0.143   0.000    0.00
   4.750   13.24    6.97   -0.91   0.000   0.143   0.000    0.00
   4.800   13.35    6.93   -1.06   0.000   0.143   0.000    0.00
   4.850   13.40    6.55   -0.90   0.000   0.143   0.000    0.00
   4.900   12.93    4.52   -0.65   0.000   0.143   0.000    0.00
   4.950   12.80    5.78   -0.73   0.000   0.143   0.000    0.00
   5.000   12.87    7.15   -0.66   0.000   0.143   0.000    0.00
   5.050   12.77    7.09   -1.01   0.000   0.143   0.000    0.00
   5.100   12.78    6.13   -0.97   0.000   0.143   0.000    0.00
   5.150   12.54    5.44   -1.11   0.000   0.143   0.000    0.00
   5.200   12.66    6.73   -1.13   0.000   0.143   0.000    0.00
   5.250   12.57    6.07   -1.14   0.000   0.143   0.000    0.00
   5.300   12.88    5.27   -1.24   0.000   0.143   0.000    0.00
   5.350   13.04    5.12   -1.14   0.000   0.143   0.000    0.00
   5.400   13.19    4.20   -1.21   0.000   0.143   0.000    0.00
   5.450   13.26    4.25   -1.40   0.000   0.143   0.000    0.00
   5.500   13.26    2.46   -1.41   0.000   0.143   0.000    0.00
   5.550   13.40    2.52   -1.69   0.000   0.143   0.000    0.00
   5.600   13.78    1.96   -1.84   0.000   0.143   0.000    0.00
   5.650   13.68    1.55   -2.01   0.000   0.143   0.000    0.00
   5.700   13.86    3.01   -1.73   0.000   0.143   0.000    0.00
   5.750   13.83    3.76   -1.44   0.000   0.143   0.000    0.00
   5.800   13.59    4.59   -1.75   0.000   0.143   0.000    0.00
   5.850   13.56    4.62   -1.72   0.000   0.143   0.000    0.00
   5.900   13.76    4.03   -1.87   0.000   0.143   0.000    0.00
   5.950   13.81    3.54   -1.42   0.000   0.143   0.000    0.00
   6.000   14.06    4.14   -1.42   0.000   0.143   0.000    0.00
   6.050   14.09    4.06   -1.44   0.000   0.143   0.000    0.00
   6.100   13.93    4.25   -1.39   0.000   0.143   0.000    0.00
   6.150   13.99    5.27   -1.46   0.000   0.143   0.000    0.00
   6.200   13.94    5.10   -1.57   0.000   0.143   0.000    0.00
   6.250   14.02    2.31   -1.51   0.000   0.143   0.000    0.00
   6.300   14.05    2.13   -1.54   0.000   0.143   0.000    0.00
   6.350   14.06    0.89   -1.52   0.000   0.143   0.000    0.00
   6.400   14.01    2.00   -1.44   0.000   0.143   0.000    0.00
   6.450   14.09    2.14   -1.30   0.000   0.143   0.000    0.00
   6.500   14.11    1.54   -1.36   0.000   0.143   0.000    0.00
   6.550   14.03    2.03   -1.50   0.000   0.143   0.000    0.00
   6.600   14.06    2.61   -1.56   0.000   0.143   0.000    0.00
   6.650   14.19    0.77   -1.43   0.000   0.143   0.000    0.00
   6.700   14.39   -0.16   -1.31   0.000   0.143   0.000    0.00
   6.750   14.65   -0.75   -0.98   0.000   0.143   0.000    0.00
   6.800   14.36   -1.24   -0.80   0.000   0.143   0.000    0.00
   6.850   14.45   -1.95   -0.70   0.000   0.143   0.000    0.00
   6.900   14.08   -0.85   -0.91   0.000   0.143   0.000    0.00
   6.950   13.96   -1.42   -0.80   0.000   0.143   0.000    0.00
   7.000   13.99    0.05   -0.74   0.000   0.143   0.000    0.00
   7.050   14.05    1.59   -0.49   0.000   0.143   0.000    0.00
   7.100   14.08    0.11   -1.10   0.000   0.143   0.000    0.00
   7.150   13.89   -0.07   -0.99   0.000   0.143   0.000    0.00
   7.200   13.85    0.36   -0.89   0.000   0.143   0.000    0.00
   7.250   13.91    2.05   -1.17   0.000   0.143   0.000    0.00
   7.300   13.89    3.43   -1.20   0.000   0.143   0.000    0.00
   7.350   13.63    2.75   -1.48   0.000   0.143   0.000    0.00
   7.400   13.96    4.17   -1.50   0.000   0.143   0.000    0.00
   7.450   14.11    3.42   -1.65   0.000   0.143   0.000    0.00
   7.500   14.19    1.77   -0.93   0.000   0.143   0.000    0.00
   7.550   14.51    1.90   -0.91   0.000   0.143   0.000    0.00
   7.600   14.47    2.67   -0.95   0.000   0.143   0.000    0.00
   7.650   14.42    2.01   -1.04   0.000   0.143   0.000    0.00
   7.700   14.23    3.01   -0.66   0.000   0.143   0.000    0.00
   7.750   14.37    3.28   -0.71   0.000   0.143   0.000    0.00
   7.800   14.21    2.29   -0.87   0.000   0.143   0.000    0.00
   7.850   14.22    2.19   -0.76   0.000   0.143   0.000    0.00
   7.900   14.26    1.74   -1.06   0.000   0.143   0.000    0.00
   7.950   13.92    2.55   -0.94   0.000   0.143   0.000    0.00
   8.000   13.87    3.84   -1.25   0.000   0.143   0.000    0.00
   8.050   14.03    4.56   -0.80   0.000   0.143   0.000    0.00
   8.100   14.08    3.92   -0.55   0.000   0.143   0.000    0.00
   8.150   13.89    3.35   -1.01   0.000   0.143   0.000    0.00
   8.200   13.65    4.28   -1.09   0.000   0.143   0.000    0.00
   8.250   13.67    5.32   -1.20   0.000   0.143   0.000    0.00
   8.300   13.73    5.71   -1.57   0.000   0.143   0.000    0.00
   8.350   13.71    5.17   -1.62   0.000   0.143   0.000    0.00
   8.400   13.70    4.12   -1.73   0.000   0.143   0.000    0.00
   8.450   13.69    4.23   -1.41   0.000   0.143   0.000    0.00
   8.500   14.09    5.43   -1.10   0.000   0.143   0.000    0.00
   8.550   14.22    5.45   -1.36   0.000   0.143   0.000    0.00
   8.600   14.06    4.87   -1.38   0.000   0.143   0.000    0.00
   8.650   14.13    5.05   -1.50   0.000   0.143   0.000    0.00
   8.700   13.94    4.72   -1.42   0.000   0.143   0.000    0.00
   8.750   14.26    4.97   -1.17   0.000   0.143   0.000    0.00
   8.800   14.01    5.28   -1.17   0.000   0.143   0.000    0.00
   8.850   13.76    5.59   -1.04   0.000   0.143   0.000    0.00
   8.900   13.63    3.85   -0.93   0.000   0.143   0.000    0.00
   8.950   13.49    3.44   -1.01   0.000   0.143   0.000    0.00
   9.000   13.54    1.93   -1.20   0.000   0.143   0.000    0.00
   9.050   13.85    1.53   -1.58   0.000   0.143   0.000    0.00
   9.100   13.93    2.57   -1.41   0.000   0.143   0.000    0.00
   9.150   13.88    2.46   -1.28   0.000   0.143   0.000    0.00
   9.200   13.98    1.58   -0.92   0.000   0.143   0.000    0.00
   9.250   14.12    2.56   -0.94   0.000   0.143   0.000    0.00
   9.300   14.05    2.39   -1.17   0.000   0.143   0.000    0.00
   9.350   13.89    2.15   -1.26   0.000   0.143   0.000    0.00
   9.400   13.90    3.00   -0.69   0.000   0.143   0.000    0.00
   9.450   13.95    3.27   -0.66   0.000   0.143   0.000    0.00
   9.500   14.10    4.53   -0.77   0.000   0.143   0.000    0.00
   9.550   13.75    3.82   -0.38   0.000   0.143   0.000    0.00
   9.600   13.83    2.08   -0.71   0.000   0.143   0.000    0.00
   9.650   13.81    3.72   -1.17   0.000   0.143   0.000    0.00
   9.700   13.81    3.76   -1.03   0.000   0.143   0.000    0.00
   9.750   13.80    2.85   -1.26   0.000   0.143   0.000    0.00
   9.800   13.59    2.75   -1.10   0.000   0.143   0.000    0.00
   9.850   13.73    2.64   -1.11   0.000   0.143   0.000    0.00
   9.900   13.76    2.46   -1.65   0.000   0.143   0.000    0.00
   9.950   13.70    1.43   -1.67   0.000   0.143   0.000    0.00
  10.000   13.79    0.84   -1.66   0.000   0.143   0.000    0.00
  10.050   13.91    1.42   -1.60   0.000   0.143   0.000    0.00
  10.100   14.09    2.03   -1.90   0.000   0.143   0.000    0.00
  10.150   14.17    2.52   -1.78   0.000   0.143   0.000    0.00
  10.200   13.83    2.72   -1.29   0.000   0.143   0.000    0.00
  10.250   13.88    2.80   -1.65   0.000   0.143   0.000    0.00
  10.300   13.97    2.84   -1.87   0.000   0.143   0.000    0.00
  10.350   13.71    4.47   -1.67   0.000   0.143   0.000    0.00
  10.400   13.33    5.18   -1.82   0.000   0.143   0.000    0.00
  10.450   13.36    5.55   -1.66   0.000   0.143   0.000    0.00
  10.500   13.56    5.08   -1.72   0.000   0.143   0.000    0.00
  10.550   13.81    4.76   -1.46   0.000   0.143   0.000    0.00
  10.600   13.86    4.21   -1.45   0.000   0.143   0.000    0.00
  10.650   14.03    5.43   -1.51   0.000   0.143   0.000    0.00
  10.700   14.15    6.19   -1.28   0.000   0.143   0.000    0.00
  10.750   14.09    6.29   -1.15   0.000   0.143   0.000    0.00
  10.800   13.83    5.41   -0.97   0.000   0.143   0.000    0.00
  10.850   13.67    5.22   -0.92   0.000   0.143   0.000    0.00
  10.900   13.68    4.85   -0.88   0.000   0.143   0.000    0.00
  10.950   13.62    4.16   -0.72   0.000   0.143   0.000    0.00
  11.000   13.50    4.11   -0.86   0.000   0.143   0.000    0.00
  11.050   13.51    3.24   -0.61   0.000   0.143   0.000    0.00
  11.100   13.21    3.93   -0.67   0.000   0.143   0.000    0.00
  11.150   13.45    3.23   -0.86   0.000   0.143   0.000    0.00
  11.200   13.47    2.29   -0.97   0.000   0.143   0.000    0.00
  11.250   13.32    1.81   -0.84   0.000   0.143   0.000    0.00
  11.300   13.07    0.99   -0.70   0.000   0.143   0.000    0.00
  11.350   13.26    0.70   -0.80   0.000   0.143   0.000    0.00
  11.400   13.00   -1.24   -0.83   0.000   0.143   0.000    0.00
  11.450   13.07   -2.75   -0.94   0.000   0.143   0.000    0.00
  11.500   12.93   -1.92   -0.86   0.000   0.143   0.000    0.00
  11.550   13.27   -0.43   -1.14   0.000   0.143   0.000    0.00
  11.600   13.58   -1.37   -0.88   0.000   0.143   0.000    0.00
  11.650   13.56    0.05   -0.85   0.000   0.143   0.000    0.00
  11.700   13.21   -0.02   -0.70   0.000   0.143   0.000    0.00
  11.750   13.12    1.97   -0.40   0.000   0.143   0.000    0.00
  11.800   12.93    3.30   -0.49   0.000   0.143   0.000    0.00
  11.850   12.88    1.62   -0.17   0.000   0.143   0.000    0.00
  11.900   13.37   -0.20   -0.23   0.000   0.143   0.000    0.00
  11.950   13.55   -1.05   -0.24   0.000   0.143   0.000    0.00
  12.000   13.49    0.29   -0.49   0.000   0.143   0.000    0.00
  12.050   13.17    0.97   -0.33   0.000   0.143   0.000    0.00
  12.100   13.22    0.65   -0.51   0.000   0.143   0.000    0.00
  12.150   13.44    0.42   -0.87   0.000   0.143   0.000    0.00
  12.200   13.57    1.13   -0.80   0.000   0.143   0.000    0.00
  12.250   13.53    0.31   -1.21   0.000   0.143   0.000    0.00
  12.300   13.60   -0.35   -1.42   0.000   0.143   0.000    0.00
  12.350   13.54   -0.59   -1.46   0.000   0.143   0.000    0.00
  12.400   13.37   -0.15   -1.28   0.000   0.143   0.000    0.00
  12.450   13.32   -0.37   -1.18   0.000   0.143   0.000    0.00
  12.500   13.36    0.15   -1.00   0.000   0.143   0.000    0.00
  12.550   13.44    1.33   -1.15   0.000   0.143   0.000    0.00
  12.600   13.24    2.17   -0.87   0.000   0.143   0.000    0.00
  12.650   13.14    0.14   -1.41   0.000   0.143   0.000    0.00
  12.700   13.01    0.35   -1.60   0.000   0.143   0.000    0.00
  12.750   12.78    1.97   -1.74   0.000   0.143   0.000    0.00
  12.800   12.80    1.08   -1.56   0.000   0.143   0.000    0.00
  12.850   12.96    1.31   -1.73   0.000   0.143   0.000    0.00
  12.900   13.05    1.29   -1.78   0.000   0.143   0.000    0.00
  12.950   13.26   -0.21   -1.71   0.000   0.143   0.000    0.00
  13.000   13.53   -1.21   -1.59   0.000   0.143   0.000    0.00
  13.050   13.86    0.31   -1.57   0.000   0.143   0.000    0.00
  13.100   13.95    0.33   -1.45   0.000   0.143   0.000    0.00
  13.150   13.79   -1.21   -1.50   0.000   0.143   0.000    0.00
  13.200   13.52   -2.07   -1.33   0.000   0.143   0.000    0.00
  13.250   13.53   -2.85   -1.22   0.000   0.143   0.000    0.00
  13.300   13.65   -1.55   -1.00   0.000   0.143   0.000    0.00
  13.350   13.40   -2.99   -0.76   0.000   0.143   0.000    0.00
  13.400   13.35   -1.94   -0.63   0.000   0.143   0.000    0.00
  13.450   13.81   -0.33   -0.80   0.000   0.143   0.000    0.00
  13.500   13.72    0.60   -1.00   0.000   0.143   0.000    0.00
  13.550   13.41   -0.15   -0.75   0.000   0.143   0.000    0.00
  13.600   13.27    0.64   -0.51   0.000   0.143   0.000    0.00
  13.650   13.45    0.63   -0.55   0.000   0.143   0.000    0.00
  13.700   13.62    2.37   -0.20   0.000   0.143   0.000    0.00
  13.750   13.51    2.12   -0.24   0.000   0.143   0.000    0.00
  13.800   13.55    2.98   -0.02   0.000   0.143   0.000    0.00
  13.850   13.51    3.95   -0.15   0.000   0.143   0.000    0.00
  13.900   13.58    3.55   -0.38   0.000   0.143   0.000    0.00
  13.950   13.55    3.80   -0.57   0.000   0.143   0.000    0.00
  14.000   13.43    3.60   -0.07   0.000   0.143   0.000    0.00
  14.050   13.46    3.41    0.25   0.000   0.143   0.000    0.00
  14.100   13.63    3.40   -0.17   0.000   0.143   0.000    0.00
  14.150   13.38    3.58   -0.15   0.000   0.143   0.000    0.00
  14.200   13.66    4.15   -0.22   0.000   0.143   0.000    0.00
  14.250   13.45    5.29    0.07   0.000   0.143   0.000    0.00
  14.300   13.75    5.12   -0.20   0.000   0.143   0.000    0.00
  14.350   13.65    4.60   -0.28   0.000   0.143   0.000    0.00
  14.400   13.36    4.79   -0.16   0.000   0.143   0.000    0.00
  14.450   12.95    3.93   -0.22   0.000   0.143   0.000    0.00
  14.500   13.14    2.06   -0.08   0.000   0.143   0.000    0.00
  14.550   13.23    0.53   -0.05   0.000   0.143   0.000    0.00
  14.600   13.65    0.06   -0.07   0.000   0.143   0.000    0.00
  14.650   13.39    2.39   -0.19   0.000   0.143   0.000    0.00
  14.700   13.23    3.01   -0.33   0.000   0.143   0.000    0.00
  14.750   13.29    3.52   -0.18   0.000   0.143   0.000    0.00
  14.800   13.29    4.05    0.18   0.000   0.143   0.000    0.00
  14.850   12.94    3.59    0.45   0.000   0.143   0.000    0.00
  14.900   12.90    3.64    0.51   0.000   0.143   0.000    0.00
  14.950   12.75    2.73    0.37   0.000   0.143   0.000    0.00
  15.000   12.77    2.48    0.32   0.000   0.143   0.000    0.00
  15.050   12.51    4.05    0.17   0.000   0.143   0.000    0.00
  15.100   12.65    3.36   -0.16   0.000   0.143   0.000    0.00
  15.150   12.62    4.33   -0.08   0.000   0.143   0.000    0.00
  15.200   12.70    3.51   -0.01   0.000   0.143   0.000    0.00
  15.250   12.72    3.51   -0.09   0.000   0.143   0.000    0.00
  15.300   12.61    4.07    0.20   0.000   0.143   0.000    0.00
  15.350   12.42    4.26    0.47   0.000   0.143   0.000    0.00
  15.400   12.38    4.15    0.68   0.000   0.143   0.000    0.00
  15.450   12.02    5.29    0.83   0.000   0.143   0.000    0.00
  15.500   11.82    5.41    1.09   0.000   0.143   0.000    0.00
  15.550   11.82    4.43    1.51   0.000   0.143   0.000    0.00
  15.600   12.00    5.20    1.51   0.000   0.143   0.000    0.00
  15.650   12.20    5.96    1.52   0.000   0.143   0.000    0.00
  15.700   12.18    5.34    1.53   0.000   0.143   0.000    0.00
  15.750   12.57    4.41    1.56   0.000   0.143   0.000    0.00
  15.800   12.49    4.42    1.48   0.000   0.143   0.000    0.00
  15.850   12.49    4.23    1.60   0.000   0.143   0.000    0.00
  15.900   12.44    3.94    1.65   0.000   0.143   0.000    0.00
  15.950   12.30    3.42    1.60   0.000   0.143   0.000    0.00
  16.000   12.12    3.20    1.80   0.000   0.143   0.000    0.00
  16.050   12.09    0.96    1.84   0.000   0.143   0.000    0.00
  16.100   12.20    3.46    1.85   0.000   0.143   0.000    0.00
  16.150   12.25    2.84    1.27   0.000   0.143   0.000    0.00
  16.200   12.34    2.79    1.52   0.000   0.143   0.000    0.00
  16.250   12.44    3.13    1.65   0.000   0.143   0.000    0.00
  16.300   12.40    2.13    1.43   0.000   0.143   0.000    0.00
  16.350   12.19    2.89    1.64   0.000   0.143   0.000    0.00
  16.400   12.13    5.19    1.64   0.000   0.143   0.000    0.00
  16.450   12.40    2.81    1.35   0.000   0.143   0.000    0.00
  16.500   12.52    2.82    1.29   0.000   0.143   0.000    0.00
  16.550   12.43    4.15    1.61   0.000   0.143   0.000    0.00
  16.600   12.55    4.46    1.43   0.000   0.143   0.000    0.00
  16.650   12.25    5.03    1.39   0.000   0.143   0.000    0.00
  16.700   12.44    5.69    1.37   0.000   0.143   0.000    0.00
  16.750   12.62    5.47    0.98   0.000   0.143   0.000    0.00
  16.800   12.76    5.12    0.98   0.000   0.143   0.000    0.00
  16.850   12.64    5.13    0.63   0.000   0.143   0.000    0.00
  16.900   12.62    4.22    0.42   0.000   0.143   0.000    0.00
  16.950   12.78    4.35    0.12   0.000   0.143   0.000    0.00
  17.000   12.72    4.75   -0.49   0.000   0.143   0.000    0.00
  17.050   12.84    6.54   -0.75   0.000   0.143   0.000    0.00
  17.100   12.97    7.65   -0.30   0.000   0.143   0.000    0.00
  17.150   12.88    7.53    0.36   0.000   0.143   0.000    0.00
  17.200   12.71    6.29    0.28   0.000   0.143   0.000    0.00
  17.250   12.67    7.37    0.13   0.000   0.143   0.000    0.00
  17.300   12.63    7.35    0.15   0.000   0.143   0.000    0.00
  17.350   12.81    8.15   -0.09   0.000   0.143   0.000    0.00
  17.400   12.76    8.49   -0.25   0.000   0.143   0.000    0.00
  17.450   12.73    9.38   -0.25   0.000   0.143   0.000    0.00
  17.500   12.93    9.55   -0.12   0.000   0.143   0.000    0.00
  17.550   12.81    9.49    0.01   0.000   0.143   0.000    0.00
  17.600   12.78    8.89   -0.30   0.000   0.143   0.000    0.00
  17.650   12.56    9.45   -0.40   0.000   0.143   0.000    0.00
  17.700   12.63    8.22   -0.34   0.000   0.143   0.000    0.00
  17.750   12.48    7.99   -0.32   0.000   0.143   0.000    0.00
  17.800   12.17    8.49   -0.47   0.000   0.143   0.000    0.00
  17.850   12.42    8.34   -0.20   0.000   0.143   0.000    0.00
  17.900   12.39    7.94   -0.24   0.000   0.143   0.000    0.00
  17.950   12.01    8.56    0.10   0.000   0.143   0.000    0.00
  18.000   11.95    5.73    0.02   0.000   0.143   0.000    0.00
  18.050   11.86    4.09   -0.12   0.000   0.143   0.000    0.00
  18.100   11.94    3.57   -0.22   0.000   0.143   0.000    0.00
  18.150   11.99    3.71    0.26   0.000   0.143   0.000    0.00
  18.200   12.11    3.22    0.15   0.000   0.143   0.000    0.00
  18.250   12.02    2.91    0.06   0.000   0.143   0.000    0.00
  18.300   12.11    3.52   -0.05   0.000   0.143   0.000    0.00
  18.350   12.07    4.28    0.09   0.000   0.143   0.000    0.00
  18.400   12.09    5.15   -0.07   0.000   0.143   0.000    0.00
  18.450   11.98    3.33   -0.25   0.000   0.143   0.000    0.00
  18.500   12.06    3.00   -0.07   0.000   0.143   0.000    0.00
  18.550   12.23    2.47   -0.32   0.000   0.143   0.000    0.00
  18.600   12.52    1.61   -0.51   0.000   0.143   0.000    0.00
  18.650   12.71    1.98   -0.47   0.000   0.143   0.000    0.00
  18.700   12.53    1.82   -0.53   0.000   0.143   0.000    0.00
  18.750   12.46   -1.08    0.11   0.000   0.143   0.000    0.00
  18.800   12.22   -2.28   -0.23   0.000   0.143   0.000    0.00
  18.850   12.07    0.50   -0.24   0.000   0.143   0.000    0.00
  18.900   11.94   -0.66    0.02   0.000   0.143   0.000    0.00
  18.950   12.22    0.74    0.23   0.000   0.143   0.000    0.00
  19.000   12.47    0.97    0.13   0.000   0.143   0.000    0.00
  19.050   12.11    1.39    0.14   0.000   0.143   0.000    0.00
  19.100   12.00    1.76    0.20   0.000   0.143   0.000    0.00
  19.150   12.31    2.23    0.14   0.000   0.143   0.000    0.00
  19.200   12.52    2.01    0.19   0.000   0.143   0.000    0.00
  19.250   12.98    2.50    0.25   0.000   0.143   0.000    0.00
  19.300   12.63    2.12    0.07   0.000   0.143   0.000    0.00
  19.350   12.41    1.67    0.26   0.000   0.143   0.000    0.00
  19.400   12.48    1.07    0.48   0.000   0.143   0.000    0.00
  19.450   12.50    0.66    0.20   0.000   0.143   0.000    0.00
  19.500   12.43    2.26    0.10   0.000   0.143   0.000    0.00
  19.550   12.47    2.13   -0.16   0.000   0.143   0.000    0.00
  19.600   12.29    3.37    0.12   0.000   0.143   0.000    0.00
  19.650   12.41    3.19    0.03   0.000   0.143   0.000    0.00
  19.700   12.44    2.87   -0.23   0.000   0.143   0.000    0.00
  19.750   12.59    2.57   -0.21   0.000   0.143   0.000    0.00
  19.800   12.49    3.41   -0.03   0.000   0.143   0.000    0.00
  19.850   12.16    4.58    0.07   0.000   0.143   0.000    0.00
  19.900   12.18    5.09   -0.03   0.000   0.143   0.000    0.00
  19.950   12.49    5.32   -0.17   0.000   0.143   0.000    0.00
  20.000   12.17    3.89   -0.30   0.000   0.143   0.000    0.00
  20.050   12.30    3.54   -0.41   0.000   0.143   0.000    0.00
  20.100   12.42    2.74   -0.29   0.000   0.143   0.000    0.00
  20.150   12.44    3.23   -0.36   0.000   0.143   0.000    0.00
  20.200   12.34    3.05   -0.32   0.000   0.143   0.000    0.00
  20.250   12.49    3.63   -0.29   0.000   0.143   0.000    0.00
  20.300   12.40    2.48   -0.07   0.000   0.143   0.000    0.00
  20.350   12.67    2.57    0.03   0.000   0.143   0.000    0.00
  20.400   12.75    3.11    0.00   0.000   0.143   0.000    0.00
  20.450   12.67    3.09   -0.15   0.000   0.143   0.000    0.00
  20.500   12.68    2.38   -0.03   0.000   0.143   0.000    0.00
  20.550   12.68    2.75   -0.18   0.000   0.143   0.000    0.00
  20.600   12.71    2.12    0.09   0.000   0.143   0.000    0.00
  20.650   12.66    2.55    0.17   0.000   0.143   0.000    0.00
  20.700   12.48    3.39    0.14   0.000   0.143   0.000    0.00
  20.750   12.69    4.07    0.41   0.000   0.143   0.000    0.00
  20.800   12.99    3.43    0.69   0.000   0.143   0.000    0.00
  20.850   13.51    2.71    0.56   0.000   0.143   0.000    0.00
  20.900   13.39    3.16    0.61   0.000   0.143   0.000    0.00
  20.950   12.83    4.16    0.72   0.000   0.143   0.000    0.00
  21.000   12.76    5.35    0.73   0.000   0.143   0.000    0.00
  21.050   12.80    3.88    0.64   0.000   0.143   0.000    0.00
  21.100   12.70    3.12    0.56   0.000   0.143   0.000    0.00
  21.150   12.87    3.70    0.58   0.000   0.143   0.000    0.00
  21.200   12.91    3.70    0.74   0.000   0.143   0.000    0.00
  21.250   13.01    4.99    0.83   0.000   0.143   0.000    0.00
  21.300   12.84    5.97    0.90   0.000   0.143   0.000    0.00
  21.350   12.89    4.34    0.93   0.000   0.143   0.000    0.00
  21.400   12.77    5.00    0.97   0.000   0.143   0.000    0.00
  21.450   12.77    5.52    0.69   0.000   0.143   0.000    0.00
  21.500   12.79    5.89    0.54   0.000   0.143   0.000    0.00
  21.550   13.00    5.49    1.11   0.000   0.143   0.000    0.00
  21.600   13.24    5.20    1.15   0.000   0.143   0.000    0.00
  21.650   12.97    5.62    0.96   0.000   0.143   0.000    0.00
  21.700   13.01    5.48    0.90   0.000   0.143   0.000    0.00
  21.750   12.90    5.13    1.18   0.000   0.143   0.000    0.00
  21.800   12.85    5.76    1.05   0.000   0.143   0.000    0.00
  21.850   12.99    5.76    1.20   0.000   0.143   0.000    0.00
  21.900   12.86    6.89    1.16   0.000   0.143   0.000    0.00
  21.950   12.70    5.93    1.31   0.000   0.143   0.000    0.00
  22.000   12.90    5.78    0.96   0.000   0.143   0.000    0.00
  22.050   12.98    5.87    1.03   0.000   0.143   0.000    0.00
  22.100   12.74    6.56    1.04   0.000   0.143   0.000    0.00
  22.150   12.61    7.36    0.46   0.000   0.143   0.000    0.00
  22.200   12.61    8.13    0.32   0.000   0.143   0.000    0.00
  22.250   12.48    8.72    0.50   0.000   0.143   0.000    0.00
  22.300   12.14    8.07    0.26   0.000   0.143   0.000    0.00
  22.350   11.86    8.80    0.05   0.000   0.143   0.000    0.00
  22.400   11.89    7.01    0.10   0.000   0.143   0.000    0.00
  22.450   11.80    6.82   -0.14   0.000   0.143   0.000    0.00
  22.500   11.76    6.28    0.03   0.000   0.143   0.000    0.00
  22.550   11.87    5.48    0.16   0.000   0.143   0.000    0.00
  22.600   11.85    5.19    0.11   0.000   0.143   0.000    0.00
  22.650   11.81    4.17   -0.22   0.000   0.143   0.000    0.00
  22.700   11.81    2.26    0.12   0.000   0.143   0.000    0.00
  22.750   11.64    1.93   -0.15   0.000   0.143   0.000    0.00