! This hub-height wind-speed file was generated by TurbSim (v1.06.00, 21-Sep-2012) on 07-Dec-2015 at 15:38:50.
!
! The requested statistics for this data were:
!    Mean Total Wind Speed =    8.000 m/s
!
!   Time  HorSpd  WndDir  VerSpd  HorShr  VerShr  LnVShr  GstSpd
!  (sec)   (m/s)   (deg)   (m/s)     (-)     (-)     (-)   (m/s)
   0.000   10.71    3.59   -1.11   0.000   0.143   0.000    0.00
   0.050   10.61    2.95   -1.00   0.000   0.143   0.000    0.00
   0.100   10.48    2.75   -0.98   0.000   0.143   0.000    0.00
   0.150   10.79    4.01   -0.87   0.000   0.143   0.000    0.00
   0.200   10.76    3.97   -0.82   0.000   0.143   0.000    0.00
   0.250   10.69    4.58   -0.77   0.000   0.143   0.000    0.00
   0.300   10.56    4.38   -0.65   0.000   0.143   0.000    0.00
   0.350   10.55    4.06   -0.72   0.000   0.143   0.000    0.00
   0.400   10.58    3.51   -0.58   0.000   0.143   0.000    0.00
   0.450   10.68    4.09   -0.58   0.000   0.143   0.000    0.00
   0.500   10.54    4.21   -0.67   0.000   0.143   0.000    0.00
   0.550   10.39    3.26   -0.73   0.000   0.143   0.000    0.00
   0.600   10.43    2.60   -0.71   0.000   0.143   0.000    0.00
   0.650   10.47    1.80   -0.74   0.000   0.143   0.000    0.00
   0.700   10.47    2.35   -0.84   0.000   0.143   0.000    0.00
   0.750   10.49    2.79   -0.70   0.000   0.143   0.000    0.00
   0.800   10.53    2.82   -0.49   0.000   0.143   0.000    0.00
   0.850   10.45    2.87   -0.78   0.000   0.143   0.000    0.00
   0.900   10.56    2.76   -1.10   0.000   0.143   0.000    0.00
   0.950   10.61    2.96   -1.22   0.000   0.143   0.000    0.00
   1.000   10.37    2.44   -1.34   0.000   0.143   0.000    0.00
   1.050   10.20    3.64   -1.33   0.000   0.143   0.000    0.00
   1.100   10.18    3.36   -1.28   0.000   0.143   0.000    0.00
   1.150   10.14    4.55   -1.14   0.000   0.143   0.000    0.00
   1.200    9.90    4.93   -1.23   0.000   0.143   0.000    0.00
   1.250    9.96    4.71   -1.16   0.000   0.143   0.000    0.00
   1.300   10.00    5.57   -1.20   0.000   0.143   0.000    0.00
   1.350    9.94    5.34   -1.09   0.000   0.143   0.000    0.00
   1.400   10.11    5.66   -1.18   0.000   0.143   0.000    0.00
   1.450   10.24    5.36   -1.37   0.000   0.143   0.000    0.00
   1.500   10.31    5.38   -1.32   0.000   0.143   0.000    0.00
   1.550   10.36    4.95   -1.18   0.000   0.143   0.000    0.00
   1.600   10.31    4.47   -1.34   0.000   0.143   0.000    0.00
   1.650   10.40    4.98   -1.31   0.000   0.143   0.000    0.00
   1.700   10.39    5.55   -1.32   0.000   0.143   0.000    0.00
   1.750   10.32    5.42   -0.97   0.000   0.143   0.000    0.00
   1.800   10.32    4.82   -0.97   0.000   0.143   0.000    0.00
   1.850   10.24    4.74   -1.15   0.000   0.143   0.000    0.00
   1.900   10.36    3.59   -1.07   0.000   0.143   0.000    0.00
   1.950   10.28    3.87   -1.18   0.000   0.143   0.000    0.00
   2.000   10.18    5.04   -1.26   0.000   0.143   0.000    0.00
   2.050   10.14    5.27   -0.98   0.000   0.143   0.000    0.00
   2.100   10.09    4.22   -1.09   0.000   0.143   0.000    0.00
   2.150    9.91    3.85   -1.07   0.000   0.143   0.000    0.00
   2.200    9.74    5.02   -1.16   0.000   0.143   0.000    0.00
   2.250    9.97    5.39   -0.96   0.000   0.143   0.000    0.00
   2.300   10.15    4.40   -0.97   0.000   0.143   0.000    0.00
   2.350   10.18    5.29   -1.04   0.000   0.143   0.000    0.00
   2.400   10.13    5.18   -1.21   0.000   0.143   0.000    0.00
   2.450   10.20    4.32   -1.38   0.000   0.143   0.000    0.00
   2.500   10.38    4.41   -1.47   0.000   0.143   0.000    0.00
   2.550   10.24    4.26   -1.46   0.000   0.143   0.000    0.00
   2.600   10.07    4.22   -1.67   0.000   0.143   0.000    0.00
   2.650    9.94    4.34   -1.73   0.000   0.143   0.000    0.00
   2.700    9.95    5.21   -1.52   0.000   0.143   0.000    0.00
   2.750   10.05    6.80   -1.51   0.000   0.143   0.000    0.00
   2.800   10.29    7.18   -1.51   0.000   0.143   0.000    0.00
   2.850   10.11    6.50   -1.35   0.000   0.143   0.000    0.00
   2.900   10.21    5.89   -1.34   0.000   0.143   0.000    0.00
   2.950   10.13    4.90   -1.22   0.000   0.143   0.000    0.00
   3.000   10.08    5.42   -1.25   0.000   0.143   0.000    0.00
   3.050   10.08    5.27   -1.25   0.000   0.143   0.000    0.00
   3.100    9.90    4.55   -1.13   0.000   0.143   0.000    0.00
   3.150    9.96    4.26   -0.98   0.000   0.143   0.000    0.00
   3.200    9.87    4.49   -0.85   0.000   0.143   0.000    0.00
   3.250    9.85    4.87   -0.77   0.000   0.143   0.000    0.00
   3.300    9.95    5.22   -0.95   0.000   0.143   0.000    0.00
   3.350    9.75    4.64   -0.93   0.000   0.143   0.000    0.00
   3.400    9.71    3.54   -0.99   0.000   0.143   0.000    0.00
   3.450    9.89    3.41   -0.93   0.000   0.143   0.000    0.00
   3.500    9.78    3.20   -0.95   0.000   0.143   0.000    0.00
   3.550    9.65    0.80   -0.98   0.000   0.143   0.000    0.00
   3.600    9.65    0.92   -1.01   0.000   0.143   0.000    0.00
   3.650    9.90    1.97   -0.97   0.000   0.143   0.000    0.00
   3.700    9.69    3.31   -0.99   0.000   0.143   0.000    0.00
   3.750    9.78    4.13   -1.04   0.000   0.143   0.000    0.00
   3.800    9.90    5.30   -1.13   0.000   0.143   0.000    0.00
   3.850    9.74    5.92   -1.11   0.000   0.143   0.000    0.00
   3.900    9.71    4.96   -1.11   0.000   0.143   0.000    0.00
   3.950    9.64    5.53   -1.21   0.000   0.143   0.000    0.00
   4.000    9.31    5.80   -1.21   0.000   0.143   0.000    0.00
   4.050    9.32    4.32   -1.36   0.000   0.143   0.000    0.00
   4.100    9.39    3.27   -1.49   0.000   0.143   0.000    0.00
   4.150    9.62    3.99   -1.56   0.000   0.143   0.000    0.00
   4.200    9.63    3.72   -1.63   0.000   0.143   0.000    0.00
   4.250    9.51    4.64   -1.68   0.000   0.143   0.000    0.00
   4.300    9.53    3.97   -1.50   0.000   0.143   0.000    0.00
   4.350    9.45    4.76   -1.37   0.000   0.143   0.000    0.00
   4.400    9.52    5.35   -1.23   0.000   0.143   0.000    0.00
   4.450    9.70    6.73   -1.16   0.000   0.143   0.000    0.00
   4.500    9.74    6.80   -1.12   0.000   0.143   0.000    0.00
   4.550    9.58    6.00   -1.05   0.000   0.143   0.000    0.00
   4.600    9.45    7.63   -1.05   0.000   0.143   0.000    0.00
   4.650    9.32    7.93   -0.89   0.000   0.143   0.000    0.00
   4.700    9.44    8.60   -0.86   0.000   0.143   0.000    0.00
   4.750    9.32    7.10   -0.75   0.000   0.143   0.000    0.00
   4.800    9.39    7.06   -0.85   0.000   0.143   0.000    0.00
   4.850    9.42    6.73   -0.75   0.000   0.143   0.000    0.00
   4.900    9.13    4.96   -0.60   0.000   0.143   0.000    0.00
   4.950    9.05    6.06   -0.65   0.000   0.143   0.000    0.00
   5.000    9.09    7.25   -0.60   0.000   0.143   0.000    0.00
   5.050    9.03    7.20   -0.82   0.000   0.143   0.000    0.00
   5.100    9.03    6.36   -0.79   0.000   0.143   0.000    0.00
   5.150    8.89    5.77   -0.88   0.000   0.143   0.000    0.00
   5.200    8.96    6.88   -0.89   0.000   0.143   0.000    0.00
   5.250    8.91    6.31   -0.90   0.000   0.143   0.000    0.00
   5.300    9.10    5.61   -0.96   0.000   0.143   0.000    0.00
   5.350    9.20    5.47   -0.90   0.000   0.143   0.000    0.00
   5.400    9.28    4.66   -0.94   0.000   0.143   0.000    0.00
   5.450    9.33    4.70   -1.06   0.000   0.143   0.000    0.00
   5.500    9.33    3.13   -1.06   0.000   0.143   0.000    0.00
   5.550    9.41    3.18   -1.24   0.000   0.143   0.000    0.00
   5.600    9.64    2.67   -1.33   0.000   0.143   0.000    0.00
   5.650    9.59    2.31   -1.43   0.000   0.143   0.000    0.00
   5.700    9.70    3.59   -1.26   0.000   0.143   0.000    0.00
   5.750    9.68    4.24   -1.08   0.000   0.143   0.000    0.00
   5.800    9.53    4.98   -1.27   0.000   0.143   0.000    0.00
   5.850    9.51    5.01   -1.25   0.000   0.143   0.000    0.00
   5.900    9.64    4.48   -1.34   0.000   0.143   0.000    0.00
   5.950    9.67    4.04   -1.06   0.000   0.143   0.000    0.00
   6.000    9.82    4.57   -1.06   0.000   0.143   0.000    0.00
   6.050    9.84    4.49   -1.07   0.000   0.143   0.000    0.00
   6.100    9.74    4.66   -1.04   0.000   0.143   0.000    0.00
   6.150    9.78    5.56   -1.09   0.000   0.143   0.000    0.00
   6.200    9.75    5.41   -1.15   0.000   0.143   0.000    0.00
   6.250    9.80    2.95   -1.12   0.000   0.143   0.000    0.00
   6.300    9.81    2.78   -1.13   0.000   0.143   0.000    0.00
   6.350    9.82    1.69   -1.12   0.000   0.143   0.000    0.00
   6.400    9.79    2.67   -1.07   0.000   0.143   0.000    0.00
   6.450    9.84    2.78   -0.98   0.000   0.143   0.000    0.00
   6.500    9.85    2.26   -1.02   0.000   0.143   0.000    0.00
   6.550    9.80    2.69   -1.10   0.000   0.143   0.000    0.00
   6.600    9.82    3.20   -1.14   0.000   0.143   0.000    0.00
   6.650    9.90    1.56   -1.06   0.000   0.143   0.000    0.00
   6.700   10.02    0.73   -0.98   0.000   0.143   0.000    0.00
   6.750   10.18    0.19   -0.78   0.000   0.143   0.000    0.00
   6.800   10.00   -0.23   -0.67   0.000   0.143   0.000    0.00
   6.850   10.05   -0.86   -0.61   0.000   0.143   0.000    0.00
   6.900    9.82    0.13   -0.74   0.000   0.143   0.000    0.00
   6.950    9.75   -0.36   -0.67   0.000   0.143   0.000    0.00
   7.000    9.77    0.94   -0.63   0.000   0.143   0.000    0.00
   7.050    9.81    2.29   -0.48   0.000   0.143   0.000    0.00
   7.100    9.83    0.98   -0.85   0.000   0.143   0.000    0.00
   7.150    9.71    0.83   -0.78   0.000   0.143   0.000    0.00
   7.200    9.69    1.21   -0.72   0.000   0.143   0.000    0.00
   7.250    9.73    2.70   -0.89   0.000   0.143   0.000    0.00
   7.300    9.71    3.92   -0.92   0.000   0.143   0.000    0.00
   7.350    9.55    3.33   -1.09   0.000   0.143   0.000    0.00
   7.400    9.76    4.56   -1.10   0.000   0.143   0.000    0.00
   7.450    9.85    3.90   -1.19   0.000   0.143   0.000    0.00
   7.500    9.90    2.44   -0.74   0.000   0.143   0.000    0.00
   7.550   10.10    2.54   -0.73   0.000   0.143   0.000    0.00
   7.600   10.07    3.22   -0.75   0.000   0.143   0.000    0.00
   7.650   10.04    2.64   -0.81   0.000   0.143   0.000    0.00
   7.700    9.93    3.54   -0.57   0.000   0.143   0.000    0.00
   7.750   10.01    3.76   -0.60   0.000   0.143   0.000    0.00
   7.800    9.91    2.89   -0.70   0.000   0.143   0.000    0.00
   7.850    9.92    2.81   -0.63   0.000   0.143   0.000    0.00
   7.900    9.94    2.41   -0.82   0.000   0.143   0.000    0.00
   7.950    9.73    3.14   -0.74   0.000   0.143   0.000    0.00
   8.000    9.70    4.27   -0.94   0.000   0.143   0.000    0.00
   8.050    9.80    4.90   -0.66   0.000   0.143   0.000    0.00
   8.100    9.83    4.34   -0.50   0.000   0.143   0.000    0.00
   8.150    9.72    3.84   -0.79   0.000   0.143   0.000    0.00
   8.200    9.57    4.66   -0.84   0.000   0.143   0.000    0.00
   8.250    9.58    5.58   -0.90   0.000   0.143   0.000    0.00
   8.300    9.62    5.92   -1.14   0.000   0.143   0.000    0.00
   8.350    9.61    5.44   -1.17   0.000   0.143   0.000    0.00
   8.400    9.60    4.52   -1.23   0.000   0.143   0.000    0.00
   8.450    9.60    4.62   -1.03   0.000   0.143   0.000    0.00
   8.500    9.84    5.66   -0.84   0.000   0.143   0.000    0.00
   8.550    9.92    5.68   -1.00   0.000   0.143   0.000    0.00
   8.600    9.82    5.17   -1.01   0.000   0.143   0.000    0.00
   8.650    9.86    5.33   -1.09   0.000   0.143   0.000    0.00
   8.700    9.75    5.04   -1.04   0.000   0.143   0.000    0.00
   8.750    9.94    5.25   -0.88   0.000   0.143   0.000    0.00
   8.800    9.79    5.53   -0.88   0.000   0.143   0.000    0.00
   8.850    9.64    5.81   -0.80   0.000   0.143   0.000    0.00
   8.900    9.56    4.28   -0.73   0.000   0.143   0.000    0.00
   8.950    9.47    3.92   -0.78   0.000   0.143   0.000    0.00
   9.000    9.50    2.59   -0.90   0.000   0.143   0.000    0.00
   9.050    9.69    2.22   -1.13   0.000   0.143   0.000    0.00
   9.100    9.74    3.13   -1.02   0.000   0.143   0.000    0.00
   9.150    9.71    3.04   -0.94   0.000   0.143   0.000    0.00
   9.200    9.77    2.26   -0.72   0.000   0.143   0.000    0.00
   9.250    9.85    3.12   -0.73   0.000   0.143   0.000    0.00
   9.300    9.81    2.97   -0.87   0.000   0.143   0.000    0.00
   9.350    9.71    2.77   -0.93   0.000   0.143   0.000    0.00
   9.400    9.72    3.51   -0.58   0.000   0.143   0.000    0.00
   9.450    9.75    3.75   -0.56   0.000   0.143   0.000    0.00
   9.500    9.84    4.86   -0.63   0.000   0.143   0.000    0.00
   9.550    9.63    4.24   -0.38   0.000   0.143   0.000    0.00
   9.600    9.67    2.70   -0.59   0.000   0.143   0.000    0.00
   9.650    9.66    4.14   -0.87   0.000   0.143   0.000    0.00
   9.700    9.67    4.18   -0.78   0.000   0.143   0.000    0.00
   9.750    9.66    3.38   -0.92   0.000   0.143   0.000    0.00
   9.800    9.53    3.30   -0.83   0.000   0.143   0.000    0.00
   9.850    9.61    3.19   -0.83   0.000   0.143   0.000    0.00
   9.900    9.63    3.04   -1.17   0.000   0.143   0.000    0.00
   9.950    9.59    2.13   -1.18   0.000   0.143   0.000    0.00
  10.000    9.64    1.61   -1.17   0.000   0.143   0.000    0.00
  10.050    9.72    2.11   -1.13   0.000   0.143   0.000    0.00
  10.100    9.83    2.64   -1.32   0.000   0.143   0.000    0.00
  10.150    9.89    3.07   -1.24   0.000   0.143   0.000    0.00
  10.200    9.68    3.26   -0.94   0.000   0.143   0.000    0.00
  10.250    9.70    3.33   -1.16   0.000   0.143   0.000    0.00
  10.300    9.76    3.35   -1.29   0.000   0.143   0.000    0.00
  10.350    9.60    4.80   -1.17   0.000   0.143   0.000    0.00
  10.400    9.37    5.42   -1.26   0.000   0.143   0.000    0.00
  10.450    9.39    5.75   -1.17   0.000   0.143   0.000    0.00
  10.500    9.51    5.33   -1.20   0.000   0.143   0.000    0.00
  10.550    9.66    5.04   -1.04   0.000   0.143   0.000    0.00
  10.600    9.70    4.56   -1.03   0.000   0.143   0.000    0.00
  10.650    9.80    5.63   -1.06   0.000   0.143   0.000    0.00
  10.700    9.87    6.30   -0.92   0.000   0.143   0.000    0.00
  10.750    9.84    6.39   -0.84   0.000   0.143   0.000    0.00
  10.800    9.68    5.62   -0.73   0.000   0.143   0.000    0.00
  10.850    9.58    5.45   -0.70   0.000   0.143   0.000    0.00
  10.900    9.58    5.12   -0.67   0.000   0.143   0.000    0.00
  10.950    9.55    4.51   -0.58   0.000   0.143   0.000    0.00
  11.000    9.47    4.47   -0.66   0.000   0.143   0.000    0.00
  11.050    9.48    3.70   -0.50   0.000   0.143   0.000    0.00
  11.100    9.29    4.32   -0.54   0.000   0.143   0.000    0.00
  11.150    9.44    3.70   -0.66   0.000   0.143   0.000    0.00
  11.200    9.45    2.87   -0.72   0.000   0.143   0.000    0.00
  11.250    9.36    2.45   -0.64   0.000   0.143   0.000    0.00
  11.300    9.20    1.74   -0.55   0.000   0.143   0.000    0.00
  11.350    9.32    1.47   -0.61   0.000   0.143   0.000    0.00
  11.400    9.16   -0.21   -0.64   0.000   0.143   0.000    0.00
  11.450    9.19   -1.54   -0.70   0.000   0.143   0.000    0.00
  11.500    9.11   -0.81   -0.65   0.000   0.143   0.000    0.00
  11.550    9.32    0.48   -0.82   0.000   0.143   0.000    0.00
  11.600    9.51   -0.37   -0.66   0.000   0.143   0.000    0.00
  11.650    9.50    0.88   -0.64   0.000   0.143   0.000    0.00
  11.700    9.29    0.83   -0.54   0.000   0.143   0.000    0.00
  11.750    9.23    2.58   -0.36   0.000   0.143   0.000    0.00
  11.800    9.12    3.75   -0.41   0.000   0.143   0.000    0.00
  11.850    9.08    2.29   -0.22   0.000   0.143   0.000    0.00
  11.900    9.38    0.67   -0.25   0.000   0.143   0.000    0.00
  11.950    9.49   -0.09   -0.25   0.000   0.143   0.000    0.00
  12.000    9.46    1.09   -0.41   0.000   0.143   0.000    0.00
  12.050    9.26    1.70   -0.31   0.000   0.143   0.000    0.00
  12.100    9.29    1.41   -0.42   0.000   0.143   0.000    0.00
  12.150    9.43    1.20   -0.64   0.000   0.143   0.000    0.00
  12.200    9.51    1.82   -0.59   0.000   0.143   0.000    0.00
  12.250    9.48    1.10   -0.85   0.000   0.143   0.000    0.00
  12.300    9.52    0.52   -0.97   0.000   0.143   0.000    0.00
  12.350    9.49    0.31   -1.00   0.000   0.143   0.000    0.00
  12.400    9.38    0.70   -0.89   0.000   0.143   0.000    0.00
  12.450    9.35    0.51   -0.82   0.000   0.143   0.000    0.00
  12.500    9.38    0.96   -0.71   0.000   0.143   0.000    0.00
  12.550    9.43    2.00   -0.80   0.000   0.143   0.000    0.00
  12.600    9.30    2.74   -0.63   0.000   0.143   0.000    0.00
  12.650    9.24    0.97   -0.96   0.000   0.143   0.000    0.00
  12.700    9.16    1.17   -1.08   0.000   0.143   0.000    0.00
  12.750    9.02    2.59   -1.17   0.000   0.143   0.000    0.00
  12.800    9.03    1.81   -1.05   0.000   0.143   0.000    0.00
  12.850    9.13    2.00   -1.16   0.000   0.143   0.000    0.00
  12.900    9.18    1.98   -1.18   0.000   0.143   0.000    0.00
  12.950    9.31    0.65   -1.14   0.000   0.143   0.000    0.00
  13.000    9.48   -0.24   -1.06   0.000   0.143   0.000    0.00
  13.050    9.68    1.08   -1.05   0.000   0.143   0.000    0.00
  13.100    9.74    1.09   -0.97   0.000   0.143   0.000    0.00
  13.150    9.64   -0.25   -1.00   0.000   0.143   0.000    0.00
  13.200    9.47   -0.99   -0.90   0.000   0.143   0.000    0.00
  13.250    9.47   -1.68   -0.82   0.000   0.143   0.000    0.00
  13.300    9.55   -0.54   -0.69   0.000   0.143   0.000    0.00
  13.350    9.39   -1.80   -0.54   0.000   0.143   0.000    0.00
  13.400    9.37   -0.87   -0.46   0.000   0.143   0.000    0.00
  13.450    9.65    0.52   -0.56   0.000   0.143   0.000    0.00
  13.500    9.59    1.34   -0.68   0.000   0.143   0.000    0.00
  13.550    9.40    0.70   -0.52   0.000   0.143   0.000    0.00
  13.600    9.32    1.41   -0.37   0.000   0.143   0.000    0.00
  13.650    9.43    1.39   -0.40   0.000   0.143   0.000    0.00
  13.700    9.54    2.92   -0.18   0.000   0.143   0.000    0.00
  13.750    9.47    2.70   -0.20   0.000   0.143   0.000    0.00
  13.800    9.50    3.46   -0.06   0.000   0.143   0.000    0.00
  13.850    9.47    4.31   -0.14   0.000   0.143   0.000    0.00
  13.900    9.51    3.96   -0.28   0.000   0.143   0.000    0.00
  13.950    9.50    4.18   -0.39   0.000   0.143   0.000    0.00
  14.000    9.42    4.01   -0.08   0.000   0.143   0.000    0.00
  14.050    9.44    3.84    0.11   0.000   0.143   0.000    0.00
  14.100    9.54    3.83   -0.14   0.000   0.143   0.000    0.00
  14.150    9.39    4.00   -0.13   0.000   0.143   0.000    0.00
  14.200    9.56    4.49   -0.17   0.000   0.143   0.000    0.00
  14.250    9.44    5.50    0.01   0.000   0.143   0.000    0.00
  14.300    9.62    5.35   -0.15   0.000   0.143   0.000    0.00
  14.350    9.56    4.89   -0.20   0.000   0.143   0.000    0.00
  14.400    9.38    5.06   -0.13   0.000   0.143   0.000    0.00
  14.450    9.12    4.32   -0.17   0.000   0.143   0.000    0.00
  14.500    9.24    2.68   -0.08   0.000   0.143   0.000    0.00
  14.550    9.29    1.33   -0.06   0.000   0.143   0.000    0.00
  14.600    9.55    0.89   -0.07   0.000   0.143   0.000    0.00
  14.650    9.40    2.96   -0.14   0.000   0.143   0.000    0.00
  14.700    9.30    3.51   -0.22   0.000   0.143   0.000    0.00
  14.750    9.33    3.95   -0.13   0.000   0.143   0.000    0.00
  14.800    9.33    4.42    0.10   0.000   0.143   0.000    0.00
  14.850    9.12    4.03    0.26   0.000   0.143   0.000    0.00
  14.900    9.10    4.07    0.30   0.000   0.143   0.000    0.00
  14.950    9.00    3.29    0.22   0.000   0.143   0.000    0.00
  15.000    9.01    3.07    0.19   0.000   0.143   0.000    0.00
  15.050    8.86    4.44    0.09   0.000   0.143   0.000    0.00
  15.100    8.94    3.84   -0.10   0.000   0.143   0.000    0.00
  15.150    8.92    4.69   -0.06   0.000   0.143   0.000    0.00
  15.200    8.97    3.97   -0.01   0.000   0.143   0.000    0.00
  15.250    8.98    3.97   -0.06   0.000   0.143   0.000    0.00
  15.300    8.92    4.46    0.13   0.000   0.143   0.000    0.00
  15.350    8.80    4.63    0.29   0.000   0.143   0.000    0.00
  15.400    8.77    4.54    0.42   0.000   0.143   0.000    0.00
  15.450    8.55    5.54    0.51   0.000   0.143   0.000    0.00
  15.500    8.43    5.65    0.67   0.000   0.143   0.000    0.00
  15.550    8.43    4.80    0.93   0.000   0.143   0.000    0.00
  15.600    8.54    5.46    0.94   0.000   0.143   0.000    0.00
  15.650    8.66    6.12    0.95   0.000   0.143   0.000    0.00
  15.700    8.65    5.58    0.95   0.000   0.143   0.000    0.00
  15.750    8.89    4.77    0.97   0.000   0.143   0.000    0.00
  15.800    8.84    4.78    0.93   0.000   0.143   0.000    0.00
  15.850    8.84    4.62    1.00   0.000   0.143   0.000    0.00
  15.900    8.81    4.36    1.04   0.000   0.143   0.000    0.00
  15.950    8.72    3.91    1.00   0.000   0.143   0.000    0.00
  16.000    8.61    3.73    1.13   0.000   0.143   0.000    0.00
  16.050    8.59    1.79    1.15   0.000   0.143   0.000    0.00
  16.100    8.66    3.95    1.16   0.000   0.143   0.000    0.00
  16.150    8.69    3.42    0.80   0.000   0.143   0.000    0.00
  16.200    8.74    3.37    0.96   0.000   0.143   0.000    0.00
  16.250    8.80    3.66    1.04   0.000   0.143   0.000    0.00
  16.300    8.78    2.79    0.91   0.000   0.143   0.000    0.00
  16.350    8.65    3.46    1.03   0.000   0.143   0.000    0.00
  16.400    8.62    5.46    1.03   0.000   0.143   0.000    0.00
  16.450    8.78    3.39    0.86   0.000   0.143   0.000    0.00
  16.500    8.85    3.39    0.82   0.000   0.143   0.000    0.00
  16.550    8.80    4.55    1.02   0.000   0.143   0.000    0.00
  16.600    8.87    4.82    0.91   0.000   0.143   0.000    0.00
  16.650    8.69    5.32    0.88   0.000   0.143   0.000    0.00
  16.700    8.81    5.89    0.87   0.000   0.143   0.000    0.00
  16.750    8.91    5.70    0.63   0.000   0.143   0.000    0.00
  16.800    9.00    5.39    0.63   0.000   0.143   0.000    0.00
  16.850    8.93    5.40    0.41   0.000   0.143   0.000    0.00
  16.900    8.92    4.61    0.29   0.000   0.143   0.000    0.00
  16.950    9.02    4.73    0.10   0.000   0.143   0.000    0.00
  17.000    8.98    5.07   -0.28   0.000   0.143   0.000    0.00
  17.050    9.05    6.64   -0.43   0.000   0.143   0.000    0.00
  17.100    9.14    7.61   -0.16   0.000   0.143   0.000    0.00
  17.150    9.08    7.50    0.25   0.000   0.143   0.000    0.00
  17.200    8.97    6.42    0.20   0.000   0.143   0.000    0.00
  17.250    8.95    7.36    0.10   0.000   0.143   0.000    0.00
  17.300    8.93    7.35    0.12   0.000   0.143   0.000    0.00
  17.350    9.04    8.04   -0.03   0.000   0.143   0.000    0.00
  17.400    9.00    8.34   -0.13   0.000   0.143   0.000    0.00
  17.450    8.98    9.11   -0.13   0.000   0.143   0.000    0.00
  17.500    9.11    9.27   -0.05   0.000   0.143   0.000    0.00
  17.550    9.03    9.21    0.03   0.000   0.143   0.000    0.00
  17.600    9.01    8.69   -0.16   0.000   0.143   0.000    0.00
  17.650    8.88    9.17   -0.22   0.000   0.143   0.000    0.00
  17.700    8.92    8.10   -0.18   0.000   0.143   0.000    0.00
  17.750    8.83    7.90   -0.17   0.000   0.143   0.000    0.00
  17.800    8.64    8.33   -0.26   0.000   0.143   0.000    0.00
  17.850    8.79    8.20   -0.10   0.000   0.143   0.000    0.00
  17.900    8.77    7.85   -0.12   0.000   0.143   0.000    0.00
  17.950    8.54    8.38    0.09   0.000   0.143   0.000    0.00
  18.000    8.50    5.93    0.03   0.000   0.143   0.000    0.00
  18.050    8.44    4.51   -0.05   0.000   0.143   0.000    0.00
  18.100    8.49    4.06   -0.11   0.000   0.143   0.000    0.00
  18.150    8.52    4.18    0.18   0.000   0.143   0.000    0.00
  18.200    8.60    3.75    0.12   0.000   0.143   0.000    0.00
  18.250    8.54    3.48    0.06   0.000   0.143   0.000    0.00
  18.300    8.60    4.00   -0.01   0.000   0.143   0.000    0.00
  18.350    8.57    4.67    0.09   0.000   0.143   0.000    0.00
  18.400    8.59    5.41   -0.01   0.000   0.143   0.000    0.00
  18.450    8.52    3.84   -0.13   0.000   0.143   0.000    0.00
  18.500    8.57    3.54   -0.01   0.000   0.143   0.000    0.00
  18.550    8.67    3.08   -0.16   0.000   0.143   0.000    0.00
  18.600    8.85    2.31   -0.28   0.000   0.143   0.000    0.00
  18.650    8.97    2.63   -0.26   0.000   0.143   0.000    0.00
  18.700    8.85    2.49   -0.30   0.000   0.143   0.000    0.00
  18.750    8.80   -0.03    0.10   0.000   0.143   0.000    0.00
  18.800    8.66   -1.06   -0.11   0.000   0.143   0.000    0.00
  18.850    8.57    1.37   -0.12   0.000   0.143   0.000    0.00
  18.900    8.48    0.37    0.05   0.000   0.143   0.000    0.00
  18.950    8.66    1.57    0.17   0.000   0.143   0.000    0.00
  19.000    8.82    1.75    0.12   0.000   0.143   0.000    0.00
  19.050    8.59    2.14    0.12   0.000   0.143   0.000    0.00
  19.100    8.53    2.46    0.16   0.000   0.143   0.000    0.00
  19.150    8.72    2.86    0.12   0.000   0.143   0.000    0.00
  19.200    8.85    2.65    0.15   0.000   0.143   0.000    0.00
  19.250    9.13    3.06    0.20   0.000   0.143   0.000    0.00
  19.300    8.91    2.75    0.08   0.000   0.143   0.000    0.00
  19.350    8.78    2.36    0.20   0.000   0.143   0.000    0.00
  19.400    8.82    1.83    0.34   0.000   0.143   0.000    0.00
  19.450    8.83    1.47    0.17   0.000   0.143   0.000    0.00
  19.500    8.79    2.88    0.10   0.000   0.143   0.000    0.00
  19.550    8.82    2.76   -0.06   0.000   0.143   0.000    0.00
  19.600    8.71    3.84    0.12   0.000   0.143   0.000    0.00
  19.650    8.78    3.68    0.06   0.000   0.143   0.000    0.00
  19.700    8.80    3.40   -0.10   0.000   0.143   0.000    0.00
  19.750    8.89    3.13   -0.08   0.000   0.143   0.000    0.00
  19.800    8.83    3.88    0.03   0.000   0.143   0.000    0.00
  19.850    8.63    4.90    0.09   0.000   0.143   0.000    0.00
  19.900    8.64    5.34    0.03   0.000   0.143   0.000    0.00
  19.950    8.83    5.53   -0.06   0.000   0.143   0.000    0.00
  20.000    8.64    4.30   -0.14   0.000   0.143   0.000    0.00
  20.050    8.71    3.99   -0.20   0.000   0.143   0.000    0.00
  20.100    8.78    3.29   -0.13   0.000   0.143   0.000    0.00
  20.150    8.80    3.71   -0.17   0.000   0.143   0.000    0.00
  20.200    8.73    3.56   -0.15   0.000   0.143   0.000    0.00
  20.250    8.83    4.06   -0.13   0.000   0.143   0.000    0.00
  20.300    8.77    3.06    0.01   0.000   0.143   0.000    0.00
  20.350    8.94    3.13    0.07   0.000   0.143   0.000    0.00
  20.400    8.99    3.59    0.05   0.000   0.143   0.000    0.00
  20.450    8.94    3.58   -0.04   0.000   0.143   0.000    0.00
  20.500    8.95    2.96    0.04   0.000   0.143   0.000    0.00
  20.550    8.94    3.29   -0.05   0.000   0.143   0.000    0.00
  20.600    8.96    2.73    0.12   0.000   0.143   0.000    0.00
  20.650    8.93    3.11    0.17   0.000   0.143   0.000    0.00
  20.700    8.82    3.85    0.15   0.000   0.143   0.000    0.00
  20.750    8.95    4.43    0.32   0.000   0.143   0.000    0.00
  20.800    9.14    3.87    0.49   0.000   0.143   0.000    0.00
  20.850    9.46    3.22    0.41   0.000   0.143   0.000    0.00
  20.900    9.38    3.61    0.44   0.000   0.143   0.000    0.00
  20.950    9.04    4.51    0.51   0.000   0.143   0.000    0.00
  21.000    9.00    5.55    0.52   0.000   0.143   0.000    0.00
  21.050    9.02    4.27    0.46   0.000   0.143   0.000    0.00
  21.100    8.96    3.61    0.41   0.000   0.143   0.000    0.00
  21.150    9.06    4.11    0.43   0.000   0.143   0.000    0.00
  21.200    9.08    4.11    0.53   0.000   0.143   0.000    0.00
  21.250    9.15    5.24    0.59   0.000   0.143   0.000    0.00
  21.300    9.04    6.09    0.63   0.000   0.143   0.000    0.00
  21.350    9.07    4.66    0.65   0.000   0.143   0.000    0.00
  21.400    9.00    5.25    0.67   0.000   0.143   0.000    0.00
  21.450    9.00    5.70    0.50   0.000   0.143   0.000    0.00
  21.500    9.02    6.02    0.41   0.000   0.143   0.000    0.00
  21.550    9.14    5.67    0.76   0.000   0.143   0.000    0.00
  21.600    9.29    5.41    0.79   0.000   0.143   0.000    0.00
  21.650    9.13    5.78    0.67   0.000   0.143   0.000    0.00
  21.700    9.15    5.66    0.63   0.000   0.143   0.000    0.00
  21.750    9.08    5.35    0.81   0.000   0.143   0.000    0.00
  21.800    9.05    5.90    0.73   0.000   0.143   0.000    0.00
  21.850    9.13    5.91    0.82   0.000   0.143   0.000    0.00
  21.900    9.06    6.90    0.79   0.000   0.143   0.000    0.00
  21.950    8.96    6.05    0.89   0.000   0.143   0.000    0.00
  22.000    9.08    5.92    0.68   0.000   0.143   0.000    0.00
  22.050    9.13    6.00    0.72   0.000   0.143   0.000    0.00
  22.100    8.98    6.60    0.72   0.000   0.143   0.000    0.00
  22.150    8.90    7.30    0.37   0.000   0.143   0.000    0.00
  22.200    8.90    7.97    0.28   0.000   0.143   0.000    0.00
  22.250    8.82    8.49    0.39   0.000   0.143   0.000    0.00
  22.300    8.61    7.91    0.24   0.000   0.143   0.000    0.00
  22.350    8.44    8.55    0.11   0.000   0.143   0.000    0.00
  22.400    8.46    6.99    0.14   0.000   0.143   0.000    0.00
  22.450    8.40    6.82   -0.01   0.000   0.143   0.000    0.00
  22.500    8.38    6.36    0.10   0.000   0.143   0.000    0.00
  22.550    8.44    5.66    0.18   0.000   0.143   0.000    0.00
  22.600    8.43    5.41    0.15   0.000   0.143   0.000    0.00
  22.650    8.41    4.52   -0.05   0.000   0.143   0.000    0.00
  22.700    8.41    2.86    0.15   0.000   0.143   0.000    0.00
  22.750    8.30    2.58   -0.01   0.000   0.143   0.000    0.00