! This hub-height wind-speed file was generated by TurbSim (v1.06.00, 21-Sep-2012) on 07-Dec-2015 at 15:32:08.
!
! The requested statistics for this data were:
!    Mean Total Wind Speed =   23.000 m/s
!
!   Time  HorSpd  WndDir  VerSpd  HorShr  VerShr  LnVShr  GstSpd
!  (sec)   (m/s)   (deg)   (m/s)     (-)     (-)     (-)   (m/s)
   0.000   31.01    1.95   -3.02   0.000   0.143   0.000    0.00
   0.050   30.61    1.01   -2.57   0.000   0.143   0.000    0.00
   0.100   30.08    0.71   -2.48   0.000   0.143   0.000    0.00
   0.150   31.31    2.55   -2.04   0.000   0.143   0.000    0.00
   0.200   31.20    2.50   -1.83   0.000   0.143   0.000    0.00
   0.250   30.92    3.34   -1.62   0.000   0.143   0.000    0.00
   0.300   30.38    3.04   -1.10   0.000   0.143   0.000    0.00
   0.350   30.35    2.59   -1.36   0.000   0.143   0.000    0.00
   0.400   30.49    1.81   -0.80   0.000   0.143   0.000    0.00
   0.450   30.86    2.66   -0.78   0.000   0.143   0.000    0.00
   0.500   30.28    2.80   -1.12   0.000   0.143   0.000    0.00
   0.550   29.71    1.41   -1.35   0.000   0.143   0.000    0.00
   0.600   29.88    0.48   -1.23   0.000   0.143   0.000    0.00
   0.650   30.08   -0.64   -1.35   0.000   0.143   0.000    0.00
   0.700   30.06    0.14   -1.75   0.000   0.143   0.000    0.00
   0.750   30.12    0.78   -1.18   0.000   0.143   0.000    0.00
   0.800   30.29    0.83   -0.29   0.000   0.143   0.000    0.00
   0.850   29.98    0.88   -1.46   0.000   0.143   0.000    0.00
   0.900   30.40    0.75   -2.76   0.000   0.143   0.000    0.00
   0.950   30.60    1.05   -3.25   0.000   0.143   0.000    0.00
   1.000   29.63    0.24   -3.68   0.000   0.143   0.000    0.00
   1.050   28.94    1.91   -3.62   0.000   0.143   0.000    0.00
   1.100   28.84    1.49   -3.38   0.000   0.143   0.000    0.00
   1.150   28.66    3.20   -2.80   0.000   0.143   0.000    0.00
   1.200   27.66    3.70   -3.15   0.000   0.143   0.000    0.00
   1.250   27.92    3.39   -2.85   0.000   0.143   0.000    0.00
   1.300   28.10    4.65   -3.01   0.000   0.143   0.000    0.00
   1.350   27.84    4.31   -2.54   0.000   0.143   0.000    0.00
   1.400   28.52    4.79   -2.92   0.000   0.143   0.000    0.00
   1.450   29.05    4.37   -3.67   0.000   0.143   0.000    0.00
   1.500   29.36    4.42   -3.50   0.000   0.143   0.000    0.00
   1.550   29.56    3.80   -2.91   0.000   0.143   0.000    0.00
   1.600   29.36    3.11   -3.56   0.000   0.143   0.000    0.00
   1.650   29.72    3.85   -3.44   0.000   0.143   0.000    0.00
   1.700   29.68    4.67   -3.45   0.000   0.143   0.000    0.00
   1.750   29.40    4.47   -1.99   0.000   0.143   0.000    0.00
   1.800   29.42    3.61   -2.03   0.000   0.143   0.000    0.00
   1.850   29.09    3.48   -2.73   0.000   0.143   0.000    0.00
   1.900   29.59    1.86   -2.41   0.000   0.143   0.000    0.00
   1.950   29.26    2.24   -2.85   0.000   0.143   0.000    0.00
   2.000   28.82    3.91   -3.14   0.000   0.143   0.000    0.00
   2.050   28.68    4.23   -1.97   0.000   0.143   0.000    0.00
   2.100   28.47    2.70   -2.43   0.000   0.143   0.000    0.00
   2.150   27.74    2.12   -2.30   0.000   0.143   0.000    0.00
   2.200   27.02    3.79   -2.66   0.000   0.143   0.000    0.00
   2.250   27.99    4.38   -1.85   0.000   0.143   0.000    0.00
   2.300   28.73    2.98   -1.93   0.000   0.143   0.000    0.00
   2.350   28.84    4.26   -2.20   0.000   0.143   0.000    0.00
   2.400   28.65    4.11   -2.86   0.000   0.143   0.000    0.00
   2.450   28.96    2.88   -3.56   0.000   0.143   0.000    0.00
   2.500   29.67    3.04   -3.94   0.000   0.143   0.000    0.00
   2.550   29.08    2.79   -3.88   0.000   0.143   0.000    0.00
   2.600   28.39    2.70   -4.72   0.000   0.143   0.000    0.00
   2.650   27.88    2.85   -4.94   0.000   0.143   0.000    0.00
   2.700   27.90    4.13   -4.10   0.000   0.143   0.000    0.00
   2.750   28.30    6.44   -4.06   0.000   0.143   0.000    0.00
   2.800   29.28    7.00   -4.07   0.000   0.143   0.000    0.00
   2.850   28.57    6.02   -3.38   0.000   0.143   0.000    0.00
   2.900   28.97    5.16   -3.36   0.000   0.143   0.000    0.00
   2.950   28.67    3.72   -2.89   0.000   0.143   0.000    0.00
   3.000   28.44    4.46   -2.99   0.000   0.143   0.000    0.00
   3.050   28.47    4.25   -3.00   0.000   0.143   0.000    0.00
   3.100   27.71    3.17   -2.48   0.000   0.143   0.000    0.00
   3.150   27.95    2.77   -1.89   0.000   0.143   0.000    0.00
   3.200   27.59    3.08   -1.36   0.000   0.143   0.000    0.00
   3.250   27.50    3.64   -1.01   0.000   0.143   0.000    0.00
   3.300   27.92    4.17   -1.79   0.000   0.143   0.000    0.00
   3.350   27.12    3.30   -1.68   0.000   0.143   0.000    0.00
   3.400   26.98    1.67   -1.89   0.000   0.143   0.000    0.00
   3.450   27.74    1.55   -1.69   0.000   0.143   0.000    0.00
   3.500   27.27    1.20   -1.75   0.000   0.143   0.000    0.00
   3.550   26.84   -2.36   -1.84   0.000   0.143   0.000    0.00
   3.600   26.81   -2.19   -1.97   0.000   0.143   0.000    0.00
   3.650   27.80   -0.55   -1.86   0.000   0.143   0.000    0.00
   3.700   26.90    1.35   -1.90   0.000   0.143   0.000    0.00
   3.750   27.24    2.58   -2.10   0.000   0.143   0.000    0.00
   3.800   27.74    4.31   -2.47   0.000   0.143   0.000    0.00
   3.850   27.07    5.20   -2.39   0.000   0.143   0.000    0.00
   3.900   26.96    3.78   -2.38   0.000   0.143   0.000    0.00
   3.950   26.66    4.61   -2.76   0.000   0.143   0.000    0.00
   4.000   25.32    4.97   -2.73   0.000   0.143   0.000    0.00
   4.050   25.40    2.76   -3.34   0.000   0.143   0.000    0.00
   4.100   25.72    1.21   -3.88   0.000   0.143   0.000    0.00
   4.150   26.63    2.35   -4.20   0.000   0.143   0.000    0.00
   4.200   26.68    1.95   -4.48   0.000   0.143   0.000    0.00
   4.250   26.18    3.28   -4.69   0.000   0.143   0.000    0.00
   4.300   26.27    2.29   -3.95   0.000   0.143   0.000    0.00
   4.350   25.91    3.45   -3.40   0.000   0.143   0.000    0.00
   4.400   26.21    4.33   -2.84   0.000   0.143   0.000    0.00
   4.450   26.93    6.41   -2.58   0.000   0.143   0.000    0.00
   4.500   27.08    6.51   -2.45   0.000   0.143   0.000    0.00
   4.550   26.46    5.32   -2.14   0.000   0.143   0.000    0.00
   4.600   25.91    7.73   -2.14   0.000   0.143   0.000    0.00
   4.650   25.39    8.19   -1.47   0.000   0.143   0.000    0.00
   4.700   25.89    9.19   -1.36   0.000   0.143   0.000    0.00
   4.750   25.38    6.95   -0.94   0.000   0.143   0.000    0.00
   4.800   25.67    6.90   -1.34   0.000   0.143   0.000    0.00
   4.850   25.78    6.41   -0.95   0.000   0.143   0.000    0.00
   4.900   24.63    3.73   -0.31   0.000   0.143   0.000    0.00
   4.950   24.29    5.39   -0.51   0.000   0.143   0.000    0.00
   5.000   24.47    7.21   -0.32   0.000   0.143   0.000    0.00
   5.050   24.21    7.14   -1.19   0.000   0.143   0.000    0.00
   5.100   24.23    5.87   -1.10   0.000   0.143   0.000    0.00
   5.150   23.64    4.95   -1.45   0.000   0.143   0.000    0.00
   5.200   23.93    6.68   -1.50   0.000   0.143   0.000    0.00
   5.250   23.71    5.81   -1.52   0.000   0.143   0.000    0.00
   5.300   24.51    4.78   -1.78   0.000   0.143   0.000    0.00
   5.350   24.90    4.59   -1.56   0.000   0.143   0.000    0.00
   5.400   25.28    3.40   -1.73   0.000   0.143   0.000    0.00
   5.450   25.47    3.47   -2.21   0.000   0.143   0.000    0.00
   5.500   25.50    1.13   -2.24   0.000   0.143   0.000    0.00
   5.550   25.83    1.25   -2.96   0.000   0.143   0.000    0.00
   5.600   26.79    0.57   -3.36   0.000   0.143   0.000    0.00
   5.650   26.57    0.03   -3.79   0.000   0.143   0.000    0.00
   5.700   27.01    1.96   -3.09   0.000   0.143   0.000    0.00
   5.750   26.91    2.92   -2.35   0.000   0.143   0.000    0.00
   5.800   26.30    3.99   -3.12   0.000   0.143   0.000    0.00
   5.850   26.23    4.04   -3.04   0.000   0.143   0.000    0.00
   5.900   26.75    3.29   -3.45   0.000   0.143   0.000    0.00
   5.950   26.87    2.66   -2.32   0.000   0.143   0.000    0.00
   6.000   27.49    3.47   -2.34   0.000   0.143   0.000    0.00
   6.050   27.57    3.37   -2.39   0.000   0.143   0.000    0.00
   6.100   27.16    3.61   -2.26   0.000   0.143   0.000    0.00
   6.150   27.31    4.94   -2.45   0.000   0.143   0.000    0.00
   6.200   27.20    4.73   -2.71   0.000   0.143   0.000    0.00
   6.250   27.42    1.15   -2.59   0.000   0.143   0.000    0.00
   6.300   27.49    0.92   -2.66   0.000   0.143   0.000    0.00
   6.350   27.54   -0.66   -2.63   0.000   0.143   0.000    0.00
   6.400   27.40    0.77   -2.43   0.000   0.143   0.000    0.00
   6.450   27.59    0.96   -2.09   0.000   0.143   0.000    0.00
   6.500   27.66    0.20   -2.23   0.000   0.143   0.000    0.00
   6.550   27.44    0.83   -2.58   0.000   0.143   0.000    0.00
   6.600   27.53    1.59   -2.75   0.000   0.143   0.000    0.00
   6.650   27.87   -0.76   -2.43   0.000   0.143   0.000    0.00
   6.700   28.40   -1.91   -2.15   0.000   0.143   0.000    0.00
   6.750   29.06   -2.62   -1.35   0.000   0.143   0.000    0.00
   6.800   28.35   -3.29   -0.88   0.000   0.143   0.000    0.00
   6.850   28.61   -4.16   -0.66   0.000   0.143   0.000    0.00
   6.900   27.63   -2.83   -1.16   0.000   0.143   0.000    0.00
   6.950   27.36   -3.57   -0.88   0.000   0.143   0.000    0.00
   7.000   27.39   -1.68   -0.73   0.000   0.143   0.000    0.00
   7.050   27.52    0.31   -0.11   0.000   0.143   0.000    0.00
   7.100   27.62   -1.59   -1.66   0.000   0.143   0.000    0.00
   7.150   27.15   -1.85   -1.37   0.000   0.143   0.000    0.00
   7.200   27.04   -1.30   -1.12   0.000   0.143   0.000    0.00
   7.250   27.17    0.89   -1.83   0.000   0.143   0.000    0.00
   7.300   27.10    2.67   -1.92   0.000   0.143   0.000    0.00
   7.350   26.45    1.77   -2.60   0.000   0.143   0.000    0.00
   7.400   27.29    3.62   -2.68   0.000   0.143   0.000    0.00
   7.450   27.66    2.68   -3.06   0.000   0.143   0.000    0.00
   7.500   27.89    0.56   -1.27   0.000   0.143   0.000    0.00
   7.550   28.70    0.76   -1.24   0.000   0.143   0.000    0.00
   7.600   28.58    1.73   -1.33   0.000   0.143   0.000    0.00
   7.650   28.46    0.89   -1.55   0.000   0.143   0.000    0.00
   7.700   27.98    2.16   -0.60   0.000   0.143   0.000    0.00
   7.750   28.33    2.50   -0.73   0.000   0.143   0.000    0.00
   7.800   27.95    1.22   -1.12   0.000   0.143   0.000    0.00
   7.850   27.97    1.10   -0.86   0.000   0.143   0.000    0.00
   7.900   28.06    0.53   -1.60   0.000   0.143   0.000    0.00
   7.950   27.20    1.54   -1.28   0.000   0.143   0.000    0.00
   8.000   27.07    3.19   -2.08   0.000   0.143   0.000    0.00
   8.050   27.48    4.12   -0.94   0.000   0.143   0.000    0.00
   8.100   27.60    3.31   -0.31   0.000   0.143   0.000    0.00
   8.150   27.14    2.56   -1.46   0.000   0.143   0.000    0.00
   8.200   26.53    3.74   -1.67   0.000   0.143   0.000    0.00
   8.250   26.58    5.10   -1.93   0.000   0.143   0.000    0.00
   8.300   26.72    5.60   -2.87   0.000   0.143   0.000    0.00
   8.350   26.68    4.90   -3.00   0.000   0.143   0.000    0.00
   8.400   26.65    3.55   -3.27   0.000   0.143   0.000    0.00
   8.450   26.64    3.69   -2.45   0.000   0.143   0.000    0.00
   8.500   27.63    5.25   -1.71   0.000   0.143   0.000    0.00
   8.550   27.98    5.28   -2.37   0.000   0.143   0.000    0.00
   8.600   27.57    4.54   -2.41   0.000   0.143   0.000    0.00
   8.650   27.74    4.77   -2.73   0.000   0.143   0.000    0.00
   8.700   27.27    4.34   -2.52   0.000   0.143   0.000    0.00
   8.750   28.08    4.68   -1.90   0.000   0.143   0.000    0.00
   8.800   27.44    5.07   -1.90   0.000   0.143   0.000    0.00
   8.850   26.82    5.47   -1.56   0.000   0.143   0.000    0.00
   8.900   26.50    3.22   -1.27   0.000   0.143   0.000    0.00
   8.950   26.14    2.69   -1.48   0.000   0.143   0.000    0.00
   9.000   26.29    0.73   -1.96   0.000   0.143   0.000    0.00
   9.050   27.09    0.25   -2.92   0.000   0.143   0.000    0.00
   9.100   27.27    1.60   -2.51   0.000   0.143   0.000    0.00
   9.150   27.16    1.46   -2.17   0.000   0.143   0.000    0.00
   9.200   27.41    0.35   -1.29   0.000   0.143   0.000    0.00
   9.250   27.76    1.62   -1.35   0.000   0.143   0.000    0.00
   9.300   27.60    1.41   -1.92   0.000   0.143   0.000    0.00
   9.350   27.18    1.08   -2.14   0.000   0.143   0.000    0.00
   9.400   27.22    2.18   -0.71   0.000   0.143   0.000    0.00
   9.450   27.33    2.53   -0.64   0.000   0.143   0.000    0.00
   9.500   27.69    4.16   -0.94   0.000   0.143   0.000    0.00
   9.550   26.82    3.24    0.08   0.000   0.143   0.000    0.00
   9.600   27.05    1.00   -0.76   0.000   0.143   0.000    0.00
   9.650   26.97    3.11   -1.92   0.000   0.143   0.000    0.00
   9.700   26.99    3.17   -1.56   0.000   0.143   0.000    0.00
   9.750   26.97    2.00   -2.14   0.000   0.143   0.000    0.00
   9.800   26.45    1.86   -1.74   0.000   0.143   0.000    0.00
   9.850   26.80    1.73   -1.76   0.000   0.143   0.000    0.00
   9.900   26.87    1.51   -3.14   0.000   0.143   0.000    0.00
   9.950   26.73    0.17   -3.17   0.000   0.143   0.000    0.00
  10.000   26.97   -0.57   -3.15   0.000   0.143   0.000    0.00
  10.050   27.27    0.19   -3.00   0.000   0.143   0.000    0.00
  10.100   27.72    0.99   -3.78   0.000   0.143   0.000    0.00
  10.150   27.92    1.63   -3.48   0.000   0.143   0.000    0.00
  10.200   27.07    1.86   -2.24   0.000   0.143   0.000    0.00
  10.250   27.19    1.97   -3.16   0.000   0.143   0.000    0.00
  10.300   27.43    2.02   -3.71   0.000   0.143   0.000    0.00
  10.350   26.75    4.12   -3.20   0.000   0.143   0.000    0.00
  10.400   25.80    5.02   -3.56   0.000   0.143   0.000    0.00
  10.450   25.88    5.51   -3.17   0.000   0.143   0.000    0.00
  10.500   26.38    4.91   -3.33   0.000   0.143   0.000    0.00
  10.550   27.01    4.50   -2.71   0.000   0.143   0.000    0.00
  10.600   27.15    3.80   -2.68   0.000   0.143   0.000    0.00
  10.650   27.58    5.37   -2.85   0.000   0.143   0.000    0.00
  10.700   27.87    6.35   -2.29   0.000   0.143   0.000    0.00
  10.750   27.73    6.49   -1.97   0.000   0.143   0.000    0.00
  10.800   27.08    5.37   -1.53   0.000   0.143   0.000    0.00
  10.850   26.67    5.13   -1.40   0.000   0.143   0.000    0.00
  10.900   26.71    4.65   -1.31   0.000   0.143   0.000    0.00
  10.950   26.57    3.77   -0.92   0.000   0.143   0.000    0.00
  11.000   26.27    3.71   -1.27   0.000   0.143   0.000    0.00
  11.050   26.29    2.58   -0.65   0.000   0.143   0.000    0.00
  11.100   25.53    3.47   -0.79   0.000   0.143   0.000    0.00
  11.150   26.13    2.59   -1.29   0.000   0.143   0.000    0.00
  11.200   26.20    1.38   -1.58   0.000   0.143   0.000    0.00
  11.250   25.84    0.75   -1.26   0.000   0.143   0.000    0.00
  11.300   25.23   -0.34   -0.88   0.000   0.143   0.000    0.00
  11.350   25.70   -0.69   -1.16   0.000   0.143   0.000    0.00
  11.400   25.09   -3.24   -1.24   0.000   0.143   0.000    0.00
  11.450   25.29   -5.18   -1.52   0.000   0.143   0.000    0.00
  11.500   24.92   -4.13   -1.31   0.000   0.143   0.000    0.00
  11.550   25.75   -2.12   -2.06   0.000   0.143   0.000    0.00
  11.600   26.56   -3.28   -1.43   0.000   0.143   0.000    0.00
  11.650   26.47   -1.45   -1.36   0.000   0.143   0.000    0.00
  11.700   25.61   -1.59   -0.96   0.000   0.143   0.000    0.00
  11.750   25.34    0.99   -0.21   0.000   0.143   0.000    0.00
  11.800   24.86    2.72   -0.43   0.000   0.143   0.000    0.00
  11.850   24.75    0.53    0.35   0.000   0.143   0.000    0.00
  11.900   26.02   -1.77    0.19   0.000   0.143   0.000    0.00
  11.950   26.47   -2.84    0.14   0.000   0.143   0.000    0.00
  12.000   26.32   -1.11   -0.49   0.000   0.143   0.000    0.00
  12.050   25.49   -0.28   -0.08   0.000   0.143   0.000    0.00
  12.100   25.63   -0.69   -0.52   0.000   0.143   0.000    0.00
  12.150   26.19   -0.95   -1.45   0.000   0.143   0.000    0.00
  12.200   26.52   -0.02   -1.28   0.000   0.143   0.000    0.00
  12.250   26.41   -1.08   -2.33   0.000   0.143   0.000    0.00
  12.300   26.61   -1.92   -2.85   0.000   0.143   0.000    0.00
  12.350   26.47   -2.23   -2.95   0.000   0.143   0.000    0.00
  12.400   26.05   -1.69   -2.50   0.000   0.143   0.000    0.00
  12.450   25.91   -1.98   -2.24   0.000   0.143   0.000    0.00
  12.500   26.02   -1.31   -1.80   0.000   0.143   0.000    0.00
  12.550   26.20    0.23   -2.18   0.000   0.143   0.000    0.00
  12.600   25.68    1.30   -1.47   0.000   0.143   0.000    0.00
  12.650   25.46   -1.35   -2.84   0.000   0.143   0.000    0.00
  12.700   25.13   -1.09   -3.33   0.000   0.143   0.000    0.00
  12.750   24.55    1.00   -3.67   0.000   0.143   0.000    0.00
  12.800   24.61   -0.17   -3.21   0.000   0.143   0.000    0.00
  12.850   25.01    0.15   -3.67   0.000   0.143   0.000    0.00
  12.900   25.22    0.13   -3.81   0.000   0.143   0.000    0.00
  12.950   25.77   -1.79   -3.66   0.000   0.143   0.000    0.00
  13.000   26.49   -3.04   -3.37   0.000   0.143   0.000    0.00
  13.050   27.28   -1.03   -3.37   0.000   0.143   0.000    0.00
  13.100   27.51   -1.00   -3.09   0.000   0.143   0.000    0.00
  13.150   27.14   -3.00   -3.21   0.000   0.143   0.000    0.00
  13.200   26.49   -4.14   -2.81   0.000   0.143   0.000    0.00
  13.250   26.53   -5.15   -2.53   0.000   0.143   0.000    0.00
  13.300   26.80   -3.46   -2.01   0.000   0.143   0.000    0.00
  13.350   26.21   -5.38   -1.40   0.000   0.143   0.000    0.00
  13.400   26.07   -4.04   -1.10   0.000   0.143   0.000    0.00
  13.450   27.20   -1.90   -1.57   0.000   0.143   0.000    0.00
  13.500   26.95   -0.73   -2.09   0.000   0.143   0.000    0.00
  13.550   26.19   -1.74   -1.47   0.000   0.143   0.000    0.00
  13.600   25.83   -0.74   -0.87   0.000   0.143   0.000    0.00
  13.650   26.27   -0.74   -1.00   0.000   0.143   0.000    0.00
  13.700   26.69    1.51   -0.16   0.000   0.143   0.000    0.00
  13.750   26.42    1.16   -0.26   0.000   0.143   0.000    0.00
  13.800   26.51    2.27    0.26   0.000   0.143   0.000    0.00
  13.850   26.40    3.50   -0.08   0.000   0.143   0.000    0.00
  13.900   26.58    2.99   -0.68   0.000   0.143   0.000    0.00
  13.950   26.52    3.29   -1.17   0.000   0.143   0.000    0.00
  14.000   26.23    3.03    0.08   0.000   0.143   0.000    0.00
  14.050   26.29    2.77    0.85   0.000   0.143   0.000    0.00
  14.100   26.72    2.76   -0.23   0.000   0.143   0.000    0.00
  14.150   26.10    2.98   -0.19   0.000   0.143   0.000    0.00
  14.200   26.80    3.71   -0.38   0.000   0.143   0.000    0.00
  14.250   26.28    5.17    0.33   0.000   0.143   0.000    0.00
  14.300   27.02    4.95   -0.38   0.000   0.143   0.000    0.00
  14.350   26.79    4.27   -0.59   0.000   0.143   0.000    0.00
  14.400   26.04    4.50   -0.29   0.000   0.143   0.000    0.00
  14.450   25.02    3.36   -0.45   0.000   0.143   0.000    0.00
  14.500   25.52    0.94   -0.12   0.000   0.143   0.000    0.00
  14.550   25.77   -1.04   -0.07   0.000   0.143   0.000    0.00
  14.600   26.85   -1.59   -0.16   0.000   0.143   0.000    0.00
  14.650   26.17    1.37   -0.46   0.000   0.143   0.000    0.00
  14.700   25.75    2.16   -0.83   0.000   0.143   0.000    0.00
  14.750   25.90    2.81   -0.46   0.000   0.143   0.000    0.00
  14.800   25.89    3.49    0.43   0.000   0.143   0.000    0.00
  14.850   25.03    2.87    1.10   0.000   0.143   0.000    0.00
  14.900   24.94    2.92    1.23   0.000   0.143   0.000    0.00
  14.950   24.56    1.72    0.88   0.000   0.143   0.000    0.00
  15.000   24.62    1.38    0.74   0.000   0.143   0.000    0.00
  15.050   23.96    3.40    0.34   0.000   0.143   0.000    0.00
  15.100   24.31    2.51   -0.51   0.000   0.143   0.000    0.00
  15.150   24.23    3.77   -0.33   0.000   0.143   0.000    0.00
  15.200   24.44    2.69   -0.16   0.000   0.143   0.000    0.00
  15.250   24.49    2.68   -0.40   0.000   0.143   0.000    0.00
  15.300   24.22    3.41    0.33   0.000   0.143   0.000    0.00
  15.350   23.74    3.63    1.00   0.000   0.143   0.000    0.00
  15.400   23.62    3.49    1.51   0.000   0.143   0.000    0.00
  15.450   22.73    4.97    1.87   0.000   0.143   0.000    0.00
  15.500   22.23    5.12    2.52   0.000   0.143   0.000    0.00
  15.550   22.23    3.80    3.56   0.000   0.143   0.000    0.00
  15.600   22.68    4.82    3.54   0.000   0.143   0.000    0.00
  15.650   23.19    5.84    3.53   0.000   0.143   0.000    0.00
  15.700   23.13    5.01    3.55   0.000   0.143   0.000    0.00
  15.750   24.12    3.80    3.58   0.000   0.143   0.000    0.00
  15.800   23.94    3.80    3.39   0.000   0.143   0.000    0.00
  15.850   23.93    3.55    3.67   0.000   0.143   0.000    0.00
  15.900   23.81    3.15    3.80   0.000   0.143   0.000    0.00
  15.950   23.47    2.44    3.66   0.000   0.143   0.000    0.00
  16.000   23.00    2.13    4.17   0.000   0.143   0.000    0.00
  16.050   22.97   -0.85    4.26   0.000   0.143   0.000    0.00
  16.100   23.21    2.47    4.27   0.000   0.143   0.000    0.00
  16.150   23.36    1.66    2.81   0.000   0.143   0.000    0.00
  16.200   23.58    1.60    3.43   0.000   0.143   0.000    0.00
  16.250   23.82    2.05    3.77   0.000   0.143   0.000    0.00
  16.300   23.73    0.72    3.21   0.000   0.143   0.000    0.00
  16.350   23.21    1.69    3.74   0.000   0.143   0.000    0.00
  16.400   23.04    4.73    3.76   0.000   0.143   0.000    0.00
  16.450   23.73    1.60    3.01   0.000   0.143   0.000    0.00
  16.500   24.05    1.61    2.87   0.000   0.143   0.000    0.00
  16.550   23.80    3.35    3.68   0.000   0.143   0.000    0.00
  16.600   24.11    3.75    3.22   0.000   0.143   0.000    0.00
  16.650   23.36    4.48    3.16   0.000   0.143   0.000    0.00
  16.700   23.84    5.35    3.10   0.000   0.143   0.000    0.00
  16.750   24.27    5.07    2.12   0.000   0.143   0.000    0.00
  16.800   24.63    4.61    2.14   0.000   0.143   0.000    0.00
  16.850   24.34    4.60    1.27   0.000   0.143   0.000    0.00
  16.900   24.30    3.41    0.77   0.000   0.143   0.000    0.00
  16.950   24.70    3.59    0.00   0.000   0.143   0.000    0.00
  17.000   24.56    4.10   -1.53   0.000   0.143   0.000    0.00
  17.050   24.84    6.43   -2.16   0.000   0.143   0.000    0.00
  17.100   25.19    7.87   -1.03   0.000   0.143   0.000    0.00
  17.150   24.96    7.70    0.66   0.000   0.143   0.000    0.00
  17.200   24.51    6.08    0.47   0.000   0.143   0.000    0.00
  17.250   24.42    7.49    0.09   0.000   0.143   0.000    0.00
  17.300   24.33    7.46    0.16   0.000   0.143   0.000    0.00
  17.350   24.79    8.49   -0.44   0.000   0.143   0.000    0.00
  17.400   24.67    8.93   -0.85   0.000   0.143   0.000    0.00
  17.450   24.58   10.09   -0.84   0.000   0.143   0.000    0.00
  17.500   25.10   10.30   -0.51   0.000   0.143   0.000    0.00
  17.550   24.79   10.23   -0.17   0.000   0.143   0.000    0.00
  17.600   24.71    9.45   -0.93   0.000   0.143   0.000    0.00
  17.650   24.18   10.19   -1.17   0.000   0.143   0.000    0.00
  17.700   24.34    8.59   -1.01   0.000   0.143   0.000    0.00
  17.750   23.97    8.30   -0.97   0.000   0.143   0.000    0.00
  17.800   23.20    8.97   -1.31   0.000   0.143   0.000    0.00
  17.850   23.81    8.77   -0.64   0.000   0.143   0.000    0.00
  17.900   23.75    8.25   -0.75   0.000   0.143   0.000    0.00
  17.950   22.80    9.08    0.14   0.000   0.143   0.000    0.00
  18.000   22.65    5.34   -0.07   0.000   0.143   0.000    0.00
  18.050   22.42    3.15   -0.40   0.000   0.143   0.000    0.00
  18.100   22.63    2.48   -0.66   0.000   0.143   0.000    0.00
  18.150   22.76    2.68    0.53   0.000   0.143   0.000    0.00
  18.200   23.06    2.05    0.25   0.000   0.143   0.000    0.00
  18.250   22.86    1.63    0.02   0.000   0.143   0.000    0.00
  18.300   23.08    2.45   -0.26   0.000   0.143   0.000    0.00
  18.350   22.95    3.47    0.12   0.000   0.143   0.000    0.00
  18.400   23.01    4.62   -0.28   0.000   0.143   0.000    0.00
  18.450   22.74    2.21   -0.75   0.000   0.143   0.000    0.00
  18.500   22.97    1.79   -0.29   0.000   0.143   0.000    0.00
  18.550   23.39    1.12   -0.92   0.000   0.143   0.000    0.00
  18.600   24.15    0.04   -1.43   0.000   0.143   0.000    0.00
  18.650   24.61    0.56   -1.34   0.000   0.143   0.000    0.00
  18.700   24.15    0.32   -1.49   0.000   0.143   0.000    0.00
  18.750   24.03   -3.46    0.13   0.000   0.143   0.000    0.00
  18.800   23.48   -5.10   -0.70   0.000   0.143   0.000    0.00
  18.850   23.02   -1.47   -0.74   0.000   0.143   0.000    0.00
  18.900   22.72   -3.04   -0.06   0.000   0.143   0.000    0.00
  18.950   23.41   -1.12    0.42   0.000   0.143   0.000    0.00
  19.000   24.04   -0.78    0.17   0.000   0.143   0.000    0.00
  19.050   23.12   -0.29    0.20   0.000   0.143   0.000    0.00
  19.100   22.84    0.17    0.35   0.000   0.143   0.000    0.00
  19.150   23.61    0.85    0.18   0.000   0.143   0.000    0.00
  19.200   24.15    0.59    0.29   0.000   0.143   0.000    0.00
  19.250   25.30    1.28    0.43   0.000   0.143   0.000    0.00
  19.300   24.42    0.75   -0.02   0.000   0.143   0.000    0.00
  19.350   23.87    0.13    0.47   0.000   0.143   0.000    0.00
  19.400   24.08   -0.65    1.03   0.000   0.143   0.000    0.00
  19.450   24.12   -1.18    0.32   0.000   0.143   0.000    0.00
  19.500   23.92    0.90    0.07   0.000   0.143   0.000    0.00
  19.550   24.04    0.74   -0.60   0.000   0.143   0.000    0.00
  19.600   23.56    2.33    0.12   0.000   0.143   0.000    0.00
  19.650   23.88    2.10   -0.12   0.000   0.143   0.000    0.00
  19.700   23.95    1.69   -0.77   0.000   0.143   0.000    0.00
  19.750   24.32    1.31   -0.74   0.000   0.143   0.000    0.00
  19.800   24.08    2.40   -0.28   0.000   0.143   0.000    0.00
  19.850   23.24    3.90    0.00   0.000   0.143   0.000    0.00
  19.900   23.27    4.56   -0.28   0.000   0.143   0.000    0.00
  19.950   24.06    4.87   -0.65   0.000   0.143   0.000    0.00
  20.000   23.28    2.98   -0.95   0.000   0.143   0.000    0.00
  20.050   23.61    2.53   -1.24   0.000   0.143   0.000    0.00
  20.100   23.91    1.49   -0.95   0.000   0.143   0.000    0.00
  20.150   23.96    2.13   -1.14   0.000   0.143   0.000    0.00
  20.200   23.70    1.88   -1.05   0.000   0.143   0.000    0.00
  20.250   24.09    2.65   -0.98   0.000   0.143   0.000    0.00
  20.300   23.87    1.14   -0.44   0.000   0.143   0.000    0.00
  20.350   24.55    1.29   -0.21   0.000   0.143   0.000    0.00
  20.400   24.74    1.99   -0.30   0.000   0.143   0.000    0.00
  20.450   24.54    1.96   -0.69   0.000   0.143   0.000    0.00
  20.500   24.59    1.03   -0.40   0.000   0.143   0.000    0.00
  20.550   24.57    1.52   -0.77   0.000   0.143   0.000    0.00
  20.600   24.65    0.69   -0.10   0.000   0.143   0.000    0.00
  20.650   24.53    1.24    0.08   0.000   0.143   0.000    0.00
  20.700   24.07    2.31    0.00   0.000   0.143   0.000    0.00
  20.750   24.60    3.20    0.67   0.000   0.143   0.000    0.00
  20.800   25.37    2.41    1.33   0.000   0.143   0.000    0.00
  20.850   26.68    1.53    0.97   0.000   0.143   0.000    0.00
  20.900   26.36    2.08    1.08   0.000   0.143   0.000    0.00
  20.950   24.94    3.32    1.39   0.000   0.143   0.000    0.00
  21.000   24.77    4.86    1.42   0.000   0.143   0.000    0.00
  21.050   24.89    2.94    1.17   0.000   0.143   0.000    0.00
  21.100   24.63    1.94    0.96   0.000   0.143   0.000    0.00
  21.150   25.04    2.71    0.99   0.000   0.143   0.000    0.00
  21.200   25.15    2.71    1.39   0.000   0.143   0.000    0.00
  21.250   25.40    4.38    1.62   0.000   0.143   0.000    0.00
  21.300   24.97    5.63    1.79   0.000   0.143   0.000    0.00
  21.350   25.10    3.51    1.84   0.000   0.143   0.000    0.00
  21.400   24.80    4.36    1.95   0.000   0.143   0.000    0.00
  21.450   24.80    5.03    1.23   0.000   0.143   0.000    0.00
  21.500   24.86    5.50    0.86   0.000   0.143   0.000    0.00
  21.550   25.38    4.99    2.28   0.000   0.143   0.000    0.00
  21.600   25.98    4.63    2.35   0.000   0.143   0.000    0.00
  21.650   25.31    5.15    1.88   0.000   0.143   0.000    0.00
  21.700   25.42    4.97    1.72   0.000   0.143   0.000    0.00
  21.750   25.13    4.51    2.42   0.000   0.143   0.000    0.00
  21.800   25.00    5.31    2.12   0.000   0.143   0.000    0.00
  21.850   25.36    5.32    2.47   0.000   0.143   0.000    0.00
  21.900   25.04    6.78    2.37   0.000   0.143   0.000    0.00
  21.950   24.64    5.52    2.76   0.000   0.143   0.000    0.00
  22.000   25.13    5.34    1.89   0.000   0.143   0.000    0.00
  22.050   25.35    5.45    2.06   0.000   0.143   0.000    0.00
  22.100   24.74    6.34    2.10   0.000   0.143   0.000    0.00
  22.150   24.40    7.38    0.66   0.000   0.143   0.000    0.00
  22.200   24.40    8.37    0.31   0.000   0.143   0.000    0.00
  22.250   24.08    9.15    0.77   0.000   0.143   0.000    0.00
  22.300   23.24    8.31    0.17   0.000   0.143   0.000    0.00
  22.350   22.52    9.29   -0.34   0.000   0.143   0.000    0.00
  22.400   22.60    6.92   -0.21   0.000   0.143   0.000    0.00
  22.450   22.38    6.66   -0.81   0.000   0.143   0.000    0.00
  22.500   22.29    5.95   -0.38   0.000   0.143   0.000    0.00
  22.550   22.55    4.89   -0.06   0.000   0.143   0.000    0.00
  22.600   22.50    4.51   -0.19   0.000   0.143   0.000    0.00
  22.650   22.43    3.15   -1.00   0.000   0.143   0.000    0.00
  22.700   22.45    0.62   -0.16   0.000   0.143   0.000    0.00
  22.750   22.03    0.15   -0.84   0.000   0.143   0.000    0.00