! This hub-height wind-speed file was generated by TurbSim (v1.06.00, 21-Sep-2012) on 06-Dec-2015 at 18:51:05.
!
! The requested statistics for this data were:
!    Mean Total Wind Speed =   12.000 m/s
!
!   Time  HorSpd  WndDir  VerSpd  HorShr  VerShr  LnVShr  GstSpd
!  (sec)   (m/s)   (deg)   (m/s)     (-)     (-)     (-)   (m/s)
   0.000   16.19    2.97   -1.64   0.000   0.143   0.000    0.00
   0.050   16.02    2.23   -1.45   0.000   0.143   0.000    0.00
   0.100   15.79    2.00   -1.42   0.000   0.143   0.000    0.00
   0.150   16.32    3.45   -1.23   0.000   0.143   0.000    0.00
   0.200   16.27    3.40   -1.14   0.000   0.143   0.000    0.00
   0.250   16.16    4.09   -1.06   0.000   0.143   0.000    0.00
   0.300   15.93    3.86   -0.85   0.000   0.143   0.000    0.00
   0.350   15.91    3.49   -0.96   0.000   0.143   0.000    0.00
   0.400   15.97    2.87   -0.72   0.000   0.143   0.000    0.00
   0.450   16.13    3.53   -0.71   0.000   0.143   0.000    0.00
   0.500   15.89    3.66   -0.86   0.000   0.143   0.000    0.00
   0.550   15.64    2.57   -0.97   0.000   0.143   0.000    0.00
   0.600   15.71    1.82   -0.92   0.000   0.143   0.000    0.00
   0.650   15.78    0.91   -0.97   0.000   0.143   0.000    0.00
   0.700   15.78    1.53   -1.14   0.000   0.143   0.000    0.00
   0.750   15.81    2.05   -0.91   0.000   0.143   0.000    0.00
   0.800   15.88    2.08   -0.54   0.000   0.143   0.000    0.00
   0.850   15.75    2.13   -1.04   0.000   0.143   0.000    0.00
   0.900   15.92    2.02   -1.58   0.000   0.143   0.000    0.00
   0.950   16.01    2.25   -1.79   0.000   0.143   0.000    0.00
   1.000   15.60    1.64   -1.99   0.000   0.143   0.000    0.00
   1.050   15.31    2.99   -1.97   0.000   0.143   0.000    0.00
   1.100   15.27    2.66   -1.88   0.000   0.143   0.000    0.00
   1.150   15.20    4.03   -1.64   0.000   0.143   0.000    0.00
   1.200   14.78    4.44   -1.80   0.000   0.143   0.000    0.00
   1.250   14.89    4.19   -1.67   0.000   0.143   0.000    0.00
   1.300   14.97    5.18   -1.74   0.000   0.143   0.000    0.00
   1.350   14.86    4.92   -1.55   0.000   0.143   0.000    0.00
   1.400   15.14    5.29   -1.71   0.000   0.143   0.000    0.00
   1.450   15.37    4.95   -2.02   0.000   0.143   0.000    0.00
   1.500   15.49    4.98   -1.95   0.000   0.143   0.000    0.00
   1.550   15.58    4.49   -1.70   0.000   0.143   0.000    0.00
   1.600   15.49    3.94   -1.97   0.000   0.143   0.000    0.00
   1.650   15.64    4.53   -1.93   0.000   0.143   0.000    0.00
   1.700   15.63    5.18   -1.93   0.000   0.143   0.000    0.00
   1.750   15.51    5.03   -1.32   0.000   0.143   0.000    0.00
   1.800   15.51    4.34   -1.34   0.000   0.143   0.000    0.00
   1.850   15.38    4.24   -1.64   0.000   0.143   0.000    0.00
   1.900   15.58    2.94   -1.50   0.000   0.143   0.000    0.00
   1.950   15.44    3.25   -1.69   0.000   0.143   0.000    0.00
   2.000   15.26    4.59   -1.82   0.000   0.143   0.000    0.00
   2.050   15.20    4.85   -1.33   0.000   0.143   0.000    0.00
   2.100   15.11    3.64   -1.53   0.000   0.143   0.000    0.00
   2.150   14.80    3.20   -1.48   0.000   0.143   0.000    0.00
   2.200   14.51    4.54   -1.64   0.000   0.143   0.000    0.00
   2.250   14.91    4.97   -1.29   0.000   0.143   0.000    0.00
   2.300   15.22    3.85   -1.32   0.000   0.143   0.000    0.00
   2.350   15.27    4.87   -1.44   0.000   0.143   0.000    0.00
   2.400   15.19    4.75   -1.72   0.000   0.143   0.000    0.00
   2.450   15.31    3.77   -2.01   0.000   0.143   0.000    0.00
   2.500   15.61    3.87   -2.17   0.000   0.143   0.000    0.00
   2.550   15.37    3.70   -2.15   0.000   0.143   0.000    0.00
   2.600   15.07    3.64   -2.51   0.000   0.143   0.000    0.00
   2.650   14.86    3.77   -2.61   0.000   0.143   0.000    0.00
   2.700   14.87    4.78   -2.26   0.000   0.143   0.000    0.00
   2.750   15.04    6.60   -2.24   0.000   0.143   0.000    0.00
   2.800   15.45    7.04   -2.23   0.000   0.143   0.000    0.00
   2.850   15.15    6.26   -1.95   0.000   0.143   0.000    0.00
   2.900   15.32    5.57   -1.93   0.000   0.143   0.000    0.00
   2.950   15.19    4.43   -1.74   0.000   0.143   0.000    0.00
   3.000   15.09    5.02   -1.78   0.000   0.143   0.000    0.00
   3.050   15.10    4.86   -1.78   0.000   0.143   0.000    0.00
   3.100   14.78    4.02   -1.57   0.000   0.143   0.000    0.00
   3.150   14.88    3.69   -1.32   0.000   0.143   0.000    0.00
   3.200   14.73    3.94   -1.10   0.000   0.143   0.000    0.00
   3.250   14.69    4.38   -0.95   0.000   0.143   0.000    0.00
   3.300   14.87    4.79   -1.27   0.000   0.143   0.000    0.00
   3.350   14.53    4.12   -1.23   0.000   0.143   0.000    0.00
   3.400   14.47    2.84   -1.32   0.000   0.143   0.000    0.00
   3.450   14.78    2.72   -1.23   0.000   0.143   0.000    0.00
   3.500   14.59    2.46   -1.26   0.000   0.143   0.000    0.00
   3.550   14.38   -0.32   -1.30   0.000   0.143   0.000    0.00
   3.600   14.37   -0.18   -1.36   0.000   0.143   0.000    0.00
   3.650   14.80    1.06   -1.30   0.000   0.143   0.000    0.00
   3.700   14.43    2.58   -1.33   0.000   0.143   0.000    0.00
   3.750   14.58    3.54   -1.41   0.000   0.143   0.000    0.00
   3.800   14.79    4.89   -1.56   0.000   0.143   0.000    0.00
   3.850   14.51    5.60   -1.54   0.000   0.143   0.000    0.00
   3.900   14.46    4.48   -1.53   0.000   0.143   0.000    0.00
   3.950   14.33    5.14   -1.70   0.000   0.143   0.000    0.00
   4.000   13.77    5.44   -1.69   0.000   0.143   0.000    0.00
   4.050   13.80    3.73   -1.95   0.000   0.143   0.000    0.00
   4.100   13.93    2.52   -2.18   0.000   0.143   0.000    0.00
   4.150   14.31    3.37   -2.30   0.000   0.143   0.000    0.00
   4.200   14.33    3.05   -2.42   0.000   0.143   0.000    0.00
   4.250   14.12    4.10   -2.51   0.000   0.143   0.000    0.00
   4.300   14.16    3.33   -2.20   0.000   0.143   0.000    0.00
   4.350   14.01    4.24   -1.97   0.000   0.143   0.000    0.00
   4.400   14.14    4.93   -1.73   0.000   0.143   0.000    0.00
   4.450   14.44    6.54   -1.61   0.000   0.143   0.000    0.00
   4.500   14.51    6.62   -1.55   0.000   0.143   0.000    0.00
   4.550   14.24    5.69   -1.42   0.000   0.143   0.000    0.00
   4.600   14.01    7.57   -1.43   0.000   0.143   0.000    0.00
   4.650   13.79    7.92   -1.15   0.000   0.143   0.000    0.00
   4.700   14.00    8.70   -1.10   0.000   0.143   0.000    0.00
   4.750   13.79    6.95   -0.92   0.000   0.143   0.000    0.00
   4.800   13.91    6.91   -1.08   0.000   0.143   0.000    0.00
   4.850   13.95    6.53   -0.92   0.000   0.143   0.000    0.00
   4.900   13.47    4.47   -0.65   0.000   0.143   0.000    0.00
   4.950   13.33    5.75   -0.74   0.000   0.143   0.000    0.00
   5.000   13.40    7.14   -0.66   0.000   0.143   0.000    0.00
   5.050   13.29    7.08   -1.03   0.000   0.143   0.000    0.00
   5.100   13.30    6.10   -0.99   0.000   0.143   0.000    0.00
   5.150   13.05    5.40   -1.14   0.000   0.143   0.000    0.00
   5.200   13.17    6.71   -1.16   0.000   0.143   0.000    0.00
   5.250   13.08    6.04   -1.17   0.000   0.143   0.000    0.00
   5.300   13.41    5.24   -1.27   0.000   0.143   0.000    0.00
   5.350   13.58    5.08   -1.17   0.000   0.143   0.000    0.00
   5.400   13.73    4.15   -1.24   0.000   0.143   0.000    0.00
   5.450   13.81    4.20   -1.44   0.000   0.143   0.000    0.00
   5.500   13.82    2.38   -1.45   0.000   0.143   0.000    0.00
   5.550   13.96    2.45   -1.75   0.000   0.143   0.000    0.00
   5.600   14.36    1.88   -1.91   0.000   0.143   0.000    0.00
   5.650   14.26    1.46   -2.09   0.000   0.143   0.000    0.00
   5.700   14.45    2.95   -1.80   0.000   0.143   0.000    0.00
   5.750   14.42    3.70   -1.49   0.000   0.143   0.000    0.00
   5.800   14.16    4.54   -1.81   0.000   0.143   0.000    0.00
   5.850   14.13    4.58   -1.78   0.000   0.143   0.000    0.00
   5.900   14.34    3.98   -1.94   0.000   0.143   0.000    0.00
   5.950   14.40    3.48   -1.47   0.000   0.143   0.000    0.00
   6.000   14.66    4.10   -1.47   0.000   0.143   0.000    0.00
   6.050   14.69    4.01   -1.49   0.000   0.143   0.000    0.00
   6.100   14.52    4.20   -1.44   0.000   0.143   0.000    0.00
   6.150   14.58    5.24   -1.51   0.000   0.143   0.000    0.00
   6.200   14.54    5.07   -1.62   0.000   0.143   0.000    0.00
   6.250   14.62    2.24   -1.56   0.000   0.143   0.000    0.00
   6.300   14.65    2.05   -1.59   0.000   0.143   0.000    0.00
   6.350   14.66    0.79   -1.58   0.000   0.143   0.000    0.00
   6.400   14.61    1.93   -1.49   0.000   0.143   0.000    0.00
   6.450   14.69    2.06   -1.34   0.000   0.143   0.000    0.00
   6.500   14.71    1.46   -1.40   0.000   0.143   0.000    0.00
   6.550   14.62    1.95   -1.55   0.000   0.143   0.000    0.00
   6.600   14.66    2.54   -1.62   0.000   0.143   0.000    0.00
   6.650   14.79    0.67   -1.47   0.000   0.143   0.000    0.00
   6.700   15.01   -0.27   -1.35   0.000   0.143   0.000    0.00
   6.750   15.28   -0.87   -1.01   0.000   0.143   0.000    0.00
   6.800   14.98   -1.37   -0.81   0.000   0.143   0.000    0.00
   6.850   15.08   -2.08   -0.71   0.000   0.143   0.000    0.00
   6.900   14.68   -0.97   -0.93   0.000   0.143   0.000    0.00
   6.950   14.56   -1.55   -0.81   0.000   0.143   0.000    0.00
   7.000   14.58   -0.06   -0.75   0.000   0.143   0.000    0.00
   7.050   14.65    1.51   -0.48   0.000   0.143   0.000    0.00
   7.100   14.68    0.00   -1.13   0.000   0.143   0.000    0.00
   7.150   14.48   -0.18   -1.01   0.000   0.143   0.000    0.00
   7.200   14.44    0.26   -0.91   0.000   0.143   0.000    0.00
   7.250   14.50    1.97   -1.20   0.000   0.143   0.000    0.00
   7.300   14.47    3.37   -1.24   0.000   0.143   0.000    0.00
   7.350   14.20    2.68   -1.53   0.000   0.143   0.000    0.00
   7.400   14.56    4.12   -1.56   0.000   0.143   0.000    0.00
   7.450   14.71    3.37   -1.71   0.000   0.143   0.000    0.00
   7.500   14.80    1.69   -0.96   0.000   0.143   0.000    0.00
   7.550   15.14    1.82   -0.94   0.000   0.143   0.000    0.00
   7.600   15.09    2.60   -0.97   0.000   0.143   0.000    0.00
   7.650   15.04    1.94   -1.06   0.000   0.143   0.000    0.00
   7.700   14.84    2.96   -0.67   0.000   0.143   0.000    0.00
   7.750   14.99    3.22   -0.72   0.000   0.143   0.000    0.00
   7.800   14.82    2.22   -0.88   0.000   0.143   0.000    0.00
   7.850   14.83    2.12   -0.77   0.000   0.143   0.000    0.00
   7.900   14.87    1.66   -1.09   0.000   0.143   0.000    0.00
   7.950   14.51    2.48   -0.96   0.000   0.143   0.000    0.00
   8.000   14.46    3.79   -1.30   0.000   0.143   0.000    0.00
   8.050   14.63    4.52   -0.81   0.000   0.143   0.000    0.00
   8.100   14.68    3.87   -0.55   0.000   0.143   0.000    0.00
   8.150   14.48    3.29   -1.04   0.000   0.143   0.000    0.00
   8.200   14.23    4.23   -1.13   0.000   0.143   0.000    0.00
   8.250   14.25    5.30   -1.24   0.000   0.143   0.000    0.00
   8.300   14.31    5.69   -1.63   0.000   0.143   0.000    0.00
   8.350   14.29    5.14   -1.69   0.000   0.143   0.000    0.00
   8.400   14.28    4.08   -1.80   0.000   0.143   0.000    0.00
   8.450   14.27    4.19   -1.46   0.000   0.143   0.000    0.00
   8.500   14.69    5.40   -1.14   0.000   0.143   0.000    0.00
   8.550   14.83    5.43   -1.41   0.000   0.143   0.000    0.00
   8.600   14.66    4.84   -1.43   0.000   0.143   0.000    0.00
   8.650   14.73    5.02   -1.56   0.000   0.143   0.000    0.00
   8.700   14.53    4.69   -1.48   0.000   0.143   0.000    0.00
   8.750   14.87    4.94   -1.21   0.000   0.143   0.000    0.00
   8.800   14.60    5.25   -1.21   0.000   0.143   0.000    0.00
   8.850   14.34    5.57   -1.07   0.000   0.143   0.000    0.00
   8.900   14.21    3.80   -0.95   0.000   0.143   0.000    0.00
   8.950   14.05    3.39   -1.04   0.000   0.143   0.000    0.00
   9.000   14.11    1.85   -1.24   0.000   0.143   0.000    0.00
   9.050   14.44    1.45   -1.64   0.000   0.143   0.000    0.00
   9.100   14.52    2.50   -1.46   0.000   0.143   0.000    0.00
   9.150   14.47    2.39   -1.32   0.000   0.143   0.000    0.00
   9.200   14.57    1.50   -0.95   0.000   0.143   0.000    0.00
   9.250   14.72    2.50   -0.97   0.000   0.143   0.000    0.00
   9.300   14.65    2.33   -1.21   0.000   0.143   0.000    0.00
   9.350   14.48    2.08   -1.30   0.000   0.143   0.000    0.00
   9.400   14.50    2.94   -0.70   0.000   0.143   0.000    0.00
   9.450   14.54    3.22   -0.67   0.000   0.143   0.000    0.00
   9.500   14.70    4.50   -0.79   0.000   0.143   0.000    0.00
   9.550   14.33    3.78   -0.37   0.000   0.143   0.000    0.00
   9.600   14.42    2.01   -0.72   0.000   0.143   0.000    0.00
   9.650   14.39    3.67   -1.21   0.000   0.143   0.000    0.00
   9.700   14.40    3.71   -1.06   0.000   0.143   0.000    0.00
   9.750   14.38    2.79   -1.30   0.000   0.143   0.000    0.00
   9.800   14.16    2.69   -1.14   0.000   0.143   0.000    0.00
   9.850   14.31    2.58   -1.14   0.000   0.143   0.000    0.00
   9.900   14.34    2.40   -1.72   0.000   0.143   0.000    0.00
   9.950   14.28    1.35   -1.74   0.000   0.143   0.000    0.00
  10.000   14.37    0.75   -1.73   0.000   0.143   0.000    0.00
  10.050   14.50    1.34   -1.66   0.000   0.143   0.000    0.00
  10.100   14.69    1.96   -1.98   0.000   0.143   0.000    0.00
  10.150   14.78    2.46   -1.86   0.000   0.143   0.000    0.00
  10.200   14.42    2.66   -1.34   0.000   0.143   0.000    0.00
  10.250   14.47    2.74   -1.72   0.000   0.143   0.000    0.00
  10.300   14.57    2.78   -1.95   0.000   0.143   0.000    0.00
  10.350   14.29    4.44   -1.74   0.000   0.143   0.000    0.00
  10.400   13.89    5.15   -1.90   0.000   0.143   0.000    0.00
  10.450   13.92    5.53   -1.73   0.000   0.143   0.000    0.00
  10.500   14.13    5.05   -1.79   0.000   0.143   0.000    0.00
  10.550   14.39    4.73   -1.52   0.000   0.143   0.000    0.00
  10.600   14.45    4.17   -1.50   0.000   0.143   0.000    0.00
  10.650   14.63    5.41   -1.57   0.000   0.143   0.000    0.00
  10.700   14.75    6.19   -1.33   0.000   0.143   0.000    0.00
  10.750   14.69    6.29   -1.19   0.000   0.143   0.000    0.00
  10.800   14.42    5.40   -1.01   0.000   0.143   0.000    0.00
  10.850   14.25    5.20   -0.95   0.000   0.143   0.000    0.00
  10.900   14.26    4.82   -0.91   0.000   0.143   0.000    0.00
  10.950   14.20    4.13   -0.74   0.000   0.143   0.000    0.00
  11.000   14.07    4.08   -0.89   0.000   0.143   0.000    0.00
  11.050   14.08    3.19   -0.62   0.000   0.143   0.000    0.00
  11.100   13.76    3.89   -0.68   0.000   0.143   0.000    0.00
  11.150   14.01    3.18   -0.89   0.000   0.143   0.000    0.00
  11.200   14.04    2.23   -1.00   0.000   0.143   0.000    0.00
  11.250   13.88    1.73   -0.87   0.000   0.143   0.000    0.00
  11.300   13.62    0.90   -0.71   0.000   0.143   0.000    0.00
  11.350   13.82    0.61   -0.82   0.000   0.143   0.000    0.00
  11.400   13.54   -1.36   -0.86   0.000   0.143   0.000    0.00
  11.450   13.61   -2.89   -0.97   0.000   0.143   0.000    0.00
  11.500   13.46   -2.06   -0.88   0.000   0.143   0.000    0.00
  11.550   13.83   -0.54   -1.19   0.000   0.143   0.000    0.00
  11.600   14.16   -1.49   -0.91   0.000   0.143   0.000    0.00
  11.650   14.13   -0.05   -0.88   0.000   0.143   0.000    0.00
  11.700   13.77   -0.12   -0.72   0.000   0.143   0.000    0.00
  11.750   13.66    1.90   -0.40   0.000   0.143   0.000    0.00
  11.800   13.46    3.25   -0.49   0.000   0.143   0.000    0.00
  11.850   13.41    1.55   -0.16   0.000   0.143   0.000    0.00
  11.900   13.93   -0.30   -0.22   0.000   0.143   0.000    0.00
  11.950   14.12   -1.16   -0.23   0.000   0.143   0.000    0.00
  12.000   14.06    0.20   -0.50   0.000   0.143   0.000    0.00
  12.050   13.72    0.88   -0.33   0.000   0.143   0.000    0.00
  12.100   13.77    0.56   -0.51   0.000   0.143   0.000    0.00
  12.150   14.00    0.33   -0.90   0.000   0.143   0.000    0.00
  12.200   14.15    1.05   -0.83   0.000   0.143   0.000    0.00
  12.250   14.10    0.22   -1.27   0.000   0.143   0.000    0.00
  12.300   14.18   -0.45   -1.48   0.000   0.143   0.000    0.00
  12.350   14.11   -0.70   -1.52   0.000   0.143   0.000    0.00
  12.400   13.94   -0.25   -1.33   0.000   0.143   0.000    0.00
  12.450   13.88   -0.48   -1.22   0.000   0.143   0.000    0.00
  12.500   13.93    0.05   -1.04   0.000   0.143   0.000    0.00
  12.550   14.01    1.25   -1.19   0.000   0.143   0.000    0.00
  12.600   13.79    2.10   -0.90   0.000   0.143   0.000    0.00
  12.650   13.69    0.04   -1.47   0.000   0.143   0.000    0.00
  12.700   13.55    0.26   -1.68   0.000   0.143   0.000    0.00
  12.750   13.31    1.90   -1.82   0.000   0.143   0.000    0.00
  12.800   13.33    0.99   -1.63   0.000   0.143   0.000    0.00
  12.850   13.50    1.23   -1.81   0.000   0.143   0.000    0.00
  12.900   13.59    1.21   -1.87   0.000   0.143   0.000    0.00
  12.950   13.81   -0.31   -1.80   0.000   0.143   0.000    0.00
  13.000   14.11   -1.33   -1.66   0.000   0.143   0.000    0.00
  13.050   14.45    0.22   -1.65   0.000   0.143   0.000    0.00
  13.100   14.54    0.24   -1.52   0.000   0.143   0.000    0.00
  13.150   14.38   -1.32   -1.57   0.000   0.143   0.000    0.00
  13.200   14.10   -2.19   -1.40   0.000   0.143   0.000    0.00
  13.250   14.11   -2.99   -1.28   0.000   0.143   0.000    0.00
  13.300   14.23   -1.67   -1.05   0.000   0.143   0.000    0.00
  13.350   13.97   -3.14   -0.79   0.000   0.143   0.000    0.00
  13.400   13.92   -2.07   -0.65   0.000   0.143   0.000    0.00
  13.450   14.40   -0.44   -0.83   0.000   0.143   0.000    0.00
  13.500   14.30    0.51   -1.05   0.000   0.143   0.000    0.00
  13.550   13.98   -0.26   -0.78   0.000   0.143   0.000    0.00
  13.600   13.83    0.55   -0.53   0.000   0.143   0.000    0.00
  13.650   14.02    0.54   -0.57   0.000   0.143   0.000    0.00
  13.700   14.20    2.31   -0.20   0.000   0.143   0.000    0.00
  13.750   14.08    2.05   -0.24   0.000   0.143   0.000    0.00
  13.800   14.12    2.93   -0.01   0.000   0.143   0.000    0.00
  13.850   14.08    3.91   -0.15   0.000   0.143   0.000    0.00
  13.900   14.15    3.51   -0.39   0.000   0.143   0.000    0.00
  13.950   14.13    3.76   -0.59   0.000   0.143   0.000    0.00
  14.000   14.00    3.56   -0.06   0.000   0.143   0.000    0.00
  14.050   14.02    3.36    0.27   0.000   0.143   0.000    0.00
  14.100   14.20    3.35   -0.17   0.000   0.143   0.000    0.00
  14.150   13.94    3.54   -0.15   0.000   0.143   0.000    0.00
  14.200   14.24    4.11   -0.22   0.000   0.143   0.000    0.00
  14.250   14.02    5.27    0.08   0.000   0.143   0.000    0.00
  14.300   14.33    5.10   -0.21   0.000   0.143   0.000    0.00
  14.350   14.23    4.57   -0.29   0.000   0.143   0.000    0.00
  14.400   13.92    4.76   -0.16   0.000   0.143   0.000    0.00
  14.450   13.49    3.89   -0.23   0.000   0.143   0.000    0.00
  14.500   13.69    1.99   -0.08   0.000   0.143   0.000    0.00
  14.550   13.78    0.43   -0.05   0.000   0.143   0.000    0.00
  14.600   14.23   -0.05   -0.07   0.000   0.143   0.000    0.00
  14.650   13.96    2.32   -0.19   0.000   0.143   0.000    0.00
  14.700   13.79    2.95   -0.35   0.000   0.143   0.000    0.00
  14.750   13.85    3.47   -0.18   0.000   0.143   0.000    0.00
  14.800   13.85    4.01    0.19   0.000   0.143   0.000    0.00
  14.850   13.48    3.54    0.48   0.000   0.143   0.000    0.00
  14.900   13.44    3.59    0.54   0.000   0.143   0.000    0.00
  14.950   13.28    2.67    0.40   0.000   0.143   0.000    0.00
  15.000   13.30    2.41    0.34   0.000   0.143   0.000    0.00
  15.050   13.03    4.00    0.18   0.000   0.143   0.000    0.00
  15.100   13.18    3.31   -0.17   0.000   0.143   0.000    0.00
  15.150   13.14    4.29   -0.09   0.000   0.143   0.000    0.00
  15.200   13.23    3.45   -0.01   0.000   0.143   0.000    0.00
  15.250   13.25    3.45   -0.10   0.000   0.143   0.000    0.00
  15.300   13.13    4.02    0.21   0.000   0.143   0.000    0.00
  15.350   12.93    4.21    0.50   0.000   0.143   0.000    0.00
  15.400   12.88    4.11    0.72   0.000   0.143   0.000    0.00
  15.450   12.51    5.26    0.87   0.000   0.143   0.000    0.00
  15.500   12.30    5.39    1.15   0.000   0.143   0.000    0.00
  15.550   12.29    4.39    1.59   0.000   0.143   0.000    0.00
  15.600   12.48    5.17    1.60   0.000   0.143   0.000    0.00
  15.650   12.70    5.95    1.60   0.000   0.143   0.000    0.00
  15.700   12.67    5.31    1.62   0.000   0.143   0.000    0.00
  15.750   13.08    4.37    1.64   0.000   0.143   0.000    0.00
  15.800   13.01    4.38    1.56   0.000   0.143   0.000    0.00
  15.850   13.00    4.19    1.69   0.000   0.143   0.000    0.00
  15.900   12.95    3.89    1.75   0.000   0.143   0.000    0.00
  15.950   12.81    3.36    1.68   0.000   0.143   0.000    0.00
  16.000   12.61    3.14    1.90   0.000   0.143   0.000    0.00
  16.050   12.58    0.86    1.94   0.000   0.143   0.000    0.00
  16.100   12.69    3.40    1.95   0.000   0.143   0.000    0.00
  16.150   12.75    2.77    1.34   0.000   0.143   0.000    0.00
  16.200   12.85    2.72    1.60   0.000   0.143   0.000    0.00
  16.250   12.95    3.07    1.74   0.000   0.143   0.000    0.00
  16.300   12.90    2.05    1.51   0.000   0.143   0.000    0.00
  16.350   12.69    2.82    1.72   0.000   0.143   0.000    0.00
  16.400   12.62    5.16    1.73   0.000   0.143   0.000    0.00
  16.450   12.91    2.74    1.42   0.000   0.143   0.000    0.00
  16.500   13.04    2.75    1.36   0.000   0.143   0.000    0.00
  16.550   12.94    4.10    1.70   0.000   0.143   0.000    0.00
  16.600   13.07    4.41    1.50   0.000   0.143   0.000    0.00
  16.650   12.75    4.99    1.46   0.000   0.143   0.000    0.00
  16.700   12.95    5.67    1.44   0.000   0.143   0.000    0.00
  16.750   13.14    5.45    1.03   0.000   0.143   0.000    0.00
  16.800   13.29    5.09    1.03   0.000   0.143   0.000    0.00
  16.850   13.16    5.09    0.66   0.000   0.143   0.000    0.00
  16.900   13.14    4.17    0.44   0.000   0.143   0.000    0.00
  16.950   13.31    4.31    0.12   0.000   0.143   0.000    0.00
  17.000   13.25    4.71   -0.53   0.000   0.143   0.000    0.00
  17.050   13.37    6.53   -0.80   0.000   0.143   0.000    0.00
  17.100   13.52    7.66   -0.32   0.000   0.143   0.000    0.00
  17.150   13.42    7.53    0.38   0.000   0.143   0.000    0.00
  17.200   13.23    6.27    0.29   0.000   0.143   0.000    0.00
  17.250   13.19    7.37    0.13   0.000   0.143   0.000    0.00
  17.300   13.16    7.35    0.15   0.000   0.143   0.000    0.00
  17.350   13.35    8.16   -0.10   0.000   0.143   0.000    0.00
  17.400   13.29    8.51   -0.27   0.000   0.143   0.000    0.00
  17.450   13.25    9.41   -0.27   0.000   0.143   0.000    0.00
  17.500   13.47    9.58   -0.14   0.000   0.143   0.000    0.00
  17.550   13.34    9.53    0.00   0.000   0.143   0.000    0.00
  17.600   13.31    8.92   -0.32   0.000   0.143   0.000    0.00
  17.650   13.08    9.48   -0.43   0.000   0.143   0.000    0.00
  17.700   13.15    8.24   -0.36   0.000   0.143   0.000    0.00
  17.750   12.99    8.00   -0.35   0.000   0.143   0.000    0.00
  17.800   12.67    8.51   -0.50   0.000   0.143   0.000    0.00
  17.850   12.93    8.36   -0.21   0.000   0.143   0.000    0.00
  17.900   12.90    7.95   -0.26   0.000   0.143   0.000    0.00
  17.950   12.50    8.58    0.11   0.000   0.143   0.000    0.00
  18.000   12.44    5.71    0.01   0.000   0.143   0.000    0.00
  18.050   12.33    4.04   -0.13   0.000   0.143   0.000    0.00
  18.100   12.42    3.51   -0.23   0.000   0.143   0.000    0.00
  18.150   12.47    3.65    0.27   0.000   0.143   0.000    0.00
  18.200   12.60    3.16    0.15   0.000   0.143   0.000    0.00
  18.250   12.51    2.84    0.05   0.000   0.143   0.000    0.00
  18.300   12.61    3.46   -0.06   0.000   0.143   0.000    0.00
  18.350   12.56    4.24    0.09   0.000   0.143   0.000    0.00
  18.400   12.58    5.11   -0.08   0.000   0.143   0.000    0.00
  18.450   12.46    3.26   -0.27   0.000   0.143   0.000    0.00
  18.500   12.55    2.93   -0.08   0.000   0.143   0.000    0.00
  18.550   12.73    2.39   -0.34   0.000   0.143   0.000    0.00
  18.600   13.04    1.52   -0.55   0.000   0.143   0.000    0.00
  18.650   13.24    1.90   -0.51   0.000   0.143   0.000    0.00
  18.700   13.04    1.73   -0.57   0.000   0.143   0.000    0.00
  18.750   12.97   -1.21    0.11   0.000   0.143   0.000    0.00
  18.800   12.72   -2.44   -0.24   0.000   0.143   0.000    0.00
  18.850   12.56    0.39   -0.26   0.000   0.143   0.000    0.00
  18.900   12.42   -0.79    0.02   0.000   0.143   0.000    0.00
  18.950   12.72    0.64    0.23   0.000   0.143   0.000    0.00
  19.000   12.99    0.87    0.13   0.000   0.143   0.000    0.00
  19.050   12.61    1.30    0.14   0.000   0.143   0.000    0.00
  19.100   12.49    1.67    0.20   0.000   0.143   0.000    0.00
  19.150   12.81    2.15    0.14   0.000   0.143   0.000    0.00
  19.200   13.04    1.93    0.19   0.000   0.143   0.000    0.00
  19.250   13.52    2.42    0.26   0.000   0.143   0.000    0.00
  19.300   13.15    2.04    0.06   0.000   0.143   0.000    0.00
  19.350   12.92    1.59    0.26   0.000   0.143   0.000    0.00
  19.400   13.00    0.97    0.51   0.000   0.143   0.000    0.00
  19.450   13.01    0.56    0.21   0.000   0.143   0.000    0.00
  19.500   12.94    2.19    0.10   0.000   0.143   0.000    0.00
  19.550   12.99    2.05   -0.18   0.000   0.143   0.000    0.00
  19.600   12.79    3.31    0.12   0.000   0.143   0.000    0.00
  19.650   12.92    3.13    0.02   0.000   0.143   0.000    0.00
  19.700   12.95    2.80   -0.25   0.000   0.143   0.000    0.00
  19.750   13.11    2.50   -0.23   0.000   0.143   0.000    0.00
  19.800   13.01    3.36   -0.04   0.000   0.143   0.000    0.00
  19.850   12.66    4.54    0.07   0.000   0.143   0.000    0.00
  19.900   12.67    5.05   -0.04   0.000   0.143   0.000    0.00
  19.950   13.00    5.29   -0.19   0.000   0.143   0.000    0.00
  20.000   12.67    3.84   -0.32   0.000   0.143   0.000    0.00
  20.050   12.81    3.48   -0.44   0.000   0.143   0.000    0.00
  20.100   12.93    2.67   -0.31   0.000   0.143   0.000    0.00
  20.150   12.95    3.17   -0.39   0.000   0.143   0.000    0.00
  20.200   12.84    2.98   -0.35   0.000   0.143   0.000    0.00
  20.250   13.01    3.57   -0.31   0.000   0.143   0.000    0.00
  20.300   12.91    2.41   -0.08   0.000   0.143   0.000    0.00
  20.350   13.20    2.50    0.02   0.000   0.143   0.000    0.00
  20.400   13.28    3.04   -0.01   0.000   0.143   0.000    0.00
  20.450   13.20    3.03   -0.17   0.000   0.143   0.000    0.00
  20.500   13.21    2.30   -0.05   0.000   0.143   0.000    0.00
  20.550   13.21    2.69   -0.20   0.000   0.143   0.000    0.00
  20.600   13.23    2.04    0.09   0.000   0.143   0.000    0.00
  20.650   13.19    2.48    0.17   0.000   0.143   0.000    0.00
  20.700   12.99    3.34    0.14   0.000   0.143   0.000    0.00
  20.750   13.22    4.02    0.42   0.000   0.143   0.000    0.00
  20.800   13.54    3.38    0.72   0.000   0.143   0.000    0.00
  20.850   14.09    2.64    0.58   0.000   0.143   0.000    0.00
  20.900   13.95    3.10    0.63   0.000   0.143   0.000    0.00
  20.950   13.36    4.12    0.75   0.000   0.143   0.000    0.00
  21.000   13.29    5.32    0.76   0.000   0.143   0.000    0.00
  21.050   13.34    3.83    0.66   0.000   0.143   0.000    0.00
  21.100   13.23    3.06    0.58   0.000   0.143   0.000    0.00
  21.150   13.40    3.65    0.60   0.000   0.143   0.000    0.00
  21.200   13.45    3.65    0.77   0.000   0.143   0.000    0.00
  21.250   13.56    4.96    0.87   0.000   0.143   0.000    0.00
  21.300   13.38    5.95    0.94   0.000   0.143   0.000    0.00
  21.350   13.43    4.29    0.97   0.000   0.143   0.000    0.00
  21.400   13.30    4.97    1.01   0.000   0.143   0.000    0.00
  21.450   13.30    5.50    0.71   0.000   0.143   0.000    0.00
  21.500   13.33    5.87    0.56   0.000   0.143   0.000    0.00
  21.550   13.54    5.47    1.16   0.000   0.143   0.000    0.00
  21.600   13.80    5.17    1.20   0.000   0.143   0.000    0.00
  21.650   13.52    5.60    1.00   0.000   0.143   0.000    0.00
  21.700   13.56    5.46    0.93   0.000   0.143   0.000    0.00
  21.750   13.44    5.10    1.23   0.000   0.143   0.000    0.00
  21.800   13.38    5.74    1.10   0.000   0.143   0.000    0.00
  21.850   13.53    5.74    1.25   0.000   0.143   0.000    0.00
  21.900   13.40    6.89    1.21   0.000   0.143   0.000    0.00
  21.950   13.23    5.91    1.37   0.000   0.143   0.000    0.00
  22.000   13.44    5.76    1.00   0.000   0.143   0.000    0.00
  22.050   13.53    5.85    1.08   0.000   0.143   0.000    0.00
  22.100   13.27    6.55    1.09   0.000   0.143   0.000    0.00
  22.150   13.13    7.37    0.48   0.000   0.143   0.000    0.00
  22.200   13.13    8.14    0.33   0.000   0.143   0.000    0.00
  22.250   12.99    8.75    0.52   0.000   0.143   0.000    0.00
  22.300   12.64    8.09    0.26   0.000   0.143   0.000    0.00
  22.350   12.33    8.84    0.03   0.000   0.143   0.000    0.00
  22.400   12.37    7.01    0.09   0.000   0.143   0.000    0.00
  22.450   12.28    6.82   -0.16   0.000   0.143   0.000    0.00
  22.500   12.24    6.27    0.02   0.000   0.143   0.000    0.00
  22.550   12.35    5.46    0.15   0.000   0.143   0.000    0.00
  22.600   12.32    5.16    0.10   0.000   0.143   0.000    0.00
  22.650   12.29    4.12   -0.24   0.000   0.143   0.000    0.00
  22.700   12.29    2.18    0.11   0.000   0.143   0.000    0.00
  22.750   12.11    1.84   -0.18   0.000   0.143   0.000    0.00