! This hub-height wind-speed file was generated by TurbSim (v1.06.00, 21-Sep-2012) on 06-Dec-2015 at 18:52:35.
!
! The requested statistics for this data were:
!    Mean Total Wind Speed =   14.000 m/s
!
!   Time  HorSpd  WndDir  VerSpd  HorShr  VerShr  LnVShr  GstSpd
!  (sec)   (m/s)   (deg)   (m/s)     (-)     (-)     (-)   (m/s)
   0.000   18.91    2.73   -1.90   0.000   0.143   0.000    0.00
   0.050   18.70    1.94   -1.67   0.000   0.143   0.000    0.00
   0.100   18.43    1.70   -1.63   0.000   0.143   0.000    0.00
   0.150   19.07    3.23   -1.39   0.000   0.143   0.000    0.00
   0.200   19.01    3.18   -1.29   0.000   0.143   0.000    0.00
   0.250   18.87    3.90   -1.18   0.000   0.143   0.000    0.00
   0.300   18.59    3.66   -0.92   0.000   0.143   0.000    0.00
   0.350   18.57    3.27   -1.06   0.000   0.143   0.000    0.00
   0.400   18.64    2.61   -0.77   0.000   0.143   0.000    0.00
   0.450   18.83    3.32   -0.75   0.000   0.143   0.000    0.00
   0.500   18.54    3.45   -0.94   0.000   0.143   0.000    0.00
   0.550   18.23    2.29   -1.07   0.000   0.143   0.000    0.00
   0.600   18.32    1.50   -1.01   0.000   0.143   0.000    0.00
   0.650   18.41    0.56   -1.07   0.000   0.143   0.000    0.00
   0.700   18.41    1.21   -1.28   0.000   0.143   0.000    0.00
   0.750   18.45    1.75   -0.99   0.000   0.143   0.000    0.00
   0.800   18.53    1.79   -0.53   0.000   0.143   0.000    0.00
   0.850   18.37    1.84   -1.14   0.000   0.143   0.000    0.00
   0.900   18.59    1.72   -1.81   0.000   0.143   0.000    0.00
   0.950   18.69    1.96   -2.07   0.000   0.143   0.000    0.00
   1.000   18.19    1.31   -2.30   0.000   0.143   0.000    0.00
   1.050   17.83    2.73   -2.28   0.000   0.143   0.000    0.00
   1.100   17.78    2.39   -2.16   0.000   0.143   0.000    0.00
   1.150   17.70    3.82   -1.87   0.000   0.143   0.000    0.00
   1.200   17.18    4.26   -2.06   0.000   0.143   0.000    0.00
   1.250   17.31    3.99   -1.91   0.000   0.143   0.000    0.00
   1.300   17.41    5.04   -1.99   0.000   0.143   0.000    0.00
   1.350   17.28    4.76   -1.75   0.000   0.143   0.000    0.00
   1.400   17.62    5.16   -1.95   0.000   0.143   0.000    0.00
   1.450   17.90    4.80   -2.33   0.000   0.143   0.000    0.00
   1.500   18.06    4.83   -2.24   0.000   0.143   0.000    0.00
   1.550   18.16    4.31   -1.94   0.000   0.143   0.000    0.00
   1.600   18.06    3.74   -2.28   0.000   0.143   0.000    0.00
   1.650   18.24    4.36   -2.22   0.000   0.143   0.000    0.00
   1.700   18.22    5.05   -2.22   0.000   0.143   0.000    0.00
   1.750   18.07    4.88   -1.47   0.000   0.143   0.000    0.00
   1.800   18.08    4.16   -1.49   0.000   0.143   0.000    0.00
   1.850   17.91    4.06   -1.86   0.000   0.143   0.000    0.00
   1.900   18.17    2.68   -1.69   0.000   0.143   0.000    0.00
   1.950   17.99    3.01   -1.92   0.000   0.143   0.000    0.00
   2.000   17.77    4.42   -2.08   0.000   0.143   0.000    0.00
   2.050   17.70    4.69   -1.48   0.000   0.143   0.000    0.00
   2.100   17.59    3.41   -1.72   0.000   0.143   0.000    0.00
   2.150   17.21    2.95   -1.66   0.000   0.143   0.000    0.00
   2.200   16.84    4.35   -1.85   0.000   0.143   0.000    0.00
   2.250   17.34    4.82   -1.43   0.000   0.143   0.000    0.00
   2.300   17.72    3.64   -1.46   0.000   0.143   0.000    0.00
   2.350   17.78    4.71   -1.61   0.000   0.143   0.000    0.00
   2.400   17.68    4.58   -1.95   0.000   0.143   0.000    0.00
   2.450   17.83    3.55   -2.31   0.000   0.143   0.000    0.00
   2.500   18.20    3.67   -2.50   0.000   0.143   0.000    0.00
   2.550   17.90    3.48   -2.48   0.000   0.143   0.000    0.00
   2.600   17.54    3.41   -2.92   0.000   0.143   0.000    0.00
   2.650   17.28    3.55   -3.04   0.000   0.143   0.000    0.00
   2.700   17.29    4.61   -2.61   0.000   0.143   0.000    0.00
   2.750   17.50    6.54   -2.58   0.000   0.143   0.000    0.00
   2.800   18.00    7.00   -2.58   0.000   0.143   0.000    0.00
   2.850   17.64    6.18   -2.23   0.000   0.143   0.000    0.00
   2.900   17.84    5.45   -2.21   0.000   0.143   0.000    0.00
   2.950   17.68    4.25   -1.97   0.000   0.143   0.000    0.00
   3.000   17.57    4.88   -2.02   0.000   0.143   0.000    0.00
   3.050   17.58    4.70   -2.03   0.000   0.143   0.000    0.00
   3.100   17.19    3.81   -1.76   0.000   0.143   0.000    0.00
   3.150   17.31    3.47   -1.46   0.000   0.143   0.000    0.00
   3.200   17.12    3.73   -1.18   0.000   0.143   0.000    0.00
   3.250   17.08    4.19   -1.00   0.000   0.143   0.000    0.00
   3.300   17.29    4.63   -1.40   0.000   0.143   0.000    0.00
   3.350   16.88    3.91   -1.35   0.000   0.143   0.000    0.00
   3.400   16.80    2.56   -1.46   0.000   0.143   0.000    0.00
   3.450   17.19    2.44   -1.35   0.000   0.143   0.000    0.00
   3.500   16.95    2.16   -1.38   0.000   0.143   0.000    0.00
   3.550   16.70   -0.78   -1.43   0.000   0.143   0.000    0.00
   3.600   16.69   -0.63   -1.50   0.000   0.143   0.000    0.00
   3.650   17.21    0.69   -1.44   0.000   0.143   0.000    0.00
   3.700   16.75    2.29   -1.47   0.000   0.143   0.000    0.00
   3.750   16.93    3.31   -1.57   0.000   0.143   0.000    0.00
   3.800   17.19    4.74   -1.76   0.000   0.143   0.000    0.00
   3.850   16.85    5.48   -1.72   0.000   0.143   0.000    0.00
   3.900   16.79    4.30   -1.71   0.000   0.143   0.000    0.00
   3.950   16.63    5.00   -1.92   0.000   0.143   0.000    0.00
   4.000   15.94    5.31   -1.91   0.000   0.143   0.000    0.00
   4.050   15.98    3.50   -2.23   0.000   0.143   0.000    0.00
   4.100   16.14    2.21   -2.50   0.000   0.143   0.000    0.00
   4.150   16.61    3.12   -2.66   0.000   0.143   0.000    0.00
   4.200   16.64    2.79   -2.81   0.000   0.143   0.000    0.00
   4.250   16.38    3.90   -2.91   0.000   0.143   0.000    0.00
   4.300   16.42    3.08   -2.53   0.000   0.143   0.000    0.00
   4.350   16.24    4.05   -2.25   0.000   0.143   0.000    0.00
   4.400   16.40    4.77   -1.95   0.000   0.143   0.000    0.00
   4.450   16.77    6.48   -1.81   0.000   0.143   0.000    0.00
   4.500   16.85    6.57   -1.74   0.000   0.143   0.000    0.00
   4.550   16.52    5.58   -1.58   0.000   0.143   0.000    0.00
   4.600   16.24    7.57   -1.58   0.000   0.143   0.000    0.00
   4.650   15.97    7.94   -1.24   0.000   0.143   0.000    0.00
   4.700   16.23    8.77   -1.18   0.000   0.143   0.000    0.00
   4.750   15.97    6.92   -0.96   0.000   0.143   0.000    0.00
   4.800   16.11    6.88   -1.16   0.000   0.143   0.000    0.00
   4.850   16.17    6.47   -0.96   0.000   0.143   0.000    0.00
   4.900   15.57    4.28   -0.63   0.000   0.143   0.000    0.00
   4.950   15.40    5.64   -0.74   0.000   0.143   0.000    0.00
   5.000   15.49    7.12   -0.64   0.000   0.143   0.000    0.00
   5.050   15.36    7.06   -1.09   0.000   0.143   0.000    0.00
   5.100   15.36    6.02   -1.05   0.000   0.143   0.000    0.00
   5.150   15.06    5.27   -1.23   0.000   0.143   0.000    0.00
   5.200   15.21    6.67   -1.25   0.000   0.143   0.000    0.00
   5.250   15.10    5.96   -1.27   0.000   0.143   0.000    0.00
   5.300   15.51    5.11   -1.39   0.000   0.143   0.000    0.00
   5.350   15.71    4.94   -1.28   0.000   0.143   0.000    0.00
   5.400   15.90    3.96   -1.36   0.000   0.143   0.000    0.00
   5.450   16.00    4.01   -1.61   0.000   0.143   0.000    0.00
   5.500   16.00    2.08   -1.62   0.000   0.143   0.000    0.00
   5.550   16.18    2.16   -1.99   0.000   0.143   0.000    0.00
   5.600   16.67    1.57   -2.19   0.000   0.143   0.000    0.00
   5.650   16.55    1.13   -2.41   0.000   0.143   0.000    0.00
   5.700   16.79    2.70   -2.05   0.000   0.143   0.000    0.00
   5.750   16.74    3.50   -1.67   0.000   0.143   0.000    0.00
   5.800   16.42    4.39   -2.07   0.000   0.143   0.000    0.00
   5.850   16.39    4.43   -2.03   0.000   0.143   0.000    0.00
   5.900   16.65    3.80   -2.23   0.000   0.143   0.000    0.00
   5.950   16.71    3.27   -1.65   0.000   0.143   0.000    0.00
   6.000   17.04    3.93   -1.65   0.000   0.143   0.000    0.00
   6.050   17.07    3.83   -1.68   0.000   0.143   0.000    0.00
   6.100   16.86    4.04   -1.61   0.000   0.143   0.000    0.00
   6.150   16.94    5.14   -1.70   0.000   0.143   0.000    0.00
   6.200   16.89    4.96   -1.84   0.000   0.143   0.000    0.00
   6.250   16.99    1.97   -1.77   0.000   0.143   0.000    0.00
   6.300   17.02    1.77   -1.80   0.000   0.143   0.000    0.00
   6.350   17.05    0.45   -1.78   0.000   0.143   0.000    0.00
   6.400   16.98    1.64   -1.68   0.000   0.143   0.000    0.00
   6.450   17.07    1.79   -1.50   0.000   0.143   0.000    0.00
   6.500   17.11    1.15   -1.57   0.000   0.143   0.000    0.00
   6.550   17.00    1.67   -1.75   0.000   0.143   0.000    0.00
   6.600   17.04    2.30   -1.84   0.000   0.143   0.000    0.00
   6.650   17.21    0.32   -1.66   0.000   0.143   0.000    0.00
   6.700   17.48   -0.66   -1.51   0.000   0.143   0.000    0.00
   6.750   17.81   -1.28   -1.09   0.000   0.143   0.000    0.00
   6.800   17.44   -1.82   -0.85   0.000   0.143   0.000    0.00
   6.850   17.57   -2.57   -0.73   0.000   0.143   0.000    0.00
   6.900   17.07   -1.41   -1.00   0.000   0.143   0.000    0.00
   6.950   16.93   -2.02   -0.85   0.000   0.143   0.000    0.00
   7.000   16.95   -0.44   -0.77   0.000   0.143   0.000    0.00
   7.050   17.03    1.21   -0.45   0.000   0.143   0.000    0.00
   7.100   17.07   -0.38   -1.25   0.000   0.143   0.000    0.00
   7.150   16.83   -0.58   -1.10   0.000   0.143   0.000    0.00
   7.200   16.77   -0.12   -0.97   0.000   0.143   0.000    0.00
   7.250   16.85    1.70   -1.34   0.000   0.143   0.000    0.00
   7.300   16.81    3.18   -1.38   0.000   0.143   0.000    0.00
   7.350   16.48    2.45   -1.74   0.000   0.143   0.000    0.00
   7.400   16.92    3.97   -1.77   0.000   0.143   0.000    0.00
   7.450   17.11    3.18   -1.96   0.000   0.143   0.000    0.00
   7.500   17.22    1.41   -1.03   0.000   0.143   0.000    0.00
   7.550   17.63    1.56   -1.01   0.000   0.143   0.000    0.00
   7.600   17.58    2.37   -1.06   0.000   0.143   0.000    0.00
   7.650   17.51    1.67   -1.17   0.000   0.143   0.000    0.00
   7.700   17.26    2.74   -0.68   0.000   0.143   0.000    0.00
   7.750   17.45    3.03   -0.75   0.000   0.143   0.000    0.00
   7.800   17.24    1.96   -0.95   0.000   0.143   0.000    0.00
   7.850   17.26    1.86   -0.81   0.000   0.143   0.000    0.00
   7.900   17.30    1.38   -1.20   0.000   0.143   0.000    0.00
   7.950   16.86    2.24   -1.04   0.000   0.143   0.000    0.00
   8.000   16.79    3.62   -1.45   0.000   0.143   0.000    0.00
   8.050   17.00    4.39   -0.86   0.000   0.143   0.000    0.00
   8.100   17.07    3.71   -0.54   0.000   0.143   0.000    0.00
   8.150   16.83    3.09   -1.14   0.000   0.143   0.000    0.00
   8.200   16.52    4.09   -1.25   0.000   0.143   0.000    0.00
   8.250   16.54    5.21   -1.38   0.000   0.143   0.000    0.00
   8.300   16.61    5.63   -1.87   0.000   0.143   0.000    0.00
   8.350   16.59    5.05   -1.93   0.000   0.143   0.000    0.00
   8.400   16.57    3.93   -2.07   0.000   0.143   0.000    0.00
   8.450   16.57    4.05   -1.65   0.000   0.143   0.000    0.00
   8.500   17.08    5.33   -1.26   0.000   0.143   0.000    0.00
   8.550   17.26    5.36   -1.60   0.000   0.143   0.000    0.00
   8.600   17.05    4.74   -1.62   0.000   0.143   0.000    0.00
   8.650   17.13    4.93   -1.78   0.000   0.143   0.000    0.00
   8.700   16.89    4.57   -1.68   0.000   0.143   0.000    0.00
   8.750   17.30    4.85   -1.35   0.000   0.143   0.000    0.00
   8.800   16.97    5.17   -1.36   0.000   0.143   0.000    0.00
   8.850   16.66    5.51   -1.18   0.000   0.143   0.000    0.00
   8.900   16.49    3.64   -1.04   0.000   0.143   0.000    0.00
   8.950   16.30    3.20   -1.15   0.000   0.143   0.000    0.00
   9.000   16.37    1.57   -1.39   0.000   0.143   0.000    0.00
   9.050   16.78    1.15   -1.88   0.000   0.143   0.000    0.00
   9.100   16.88    2.27   -1.66   0.000   0.143   0.000    0.00
   9.150   16.82    2.15   -1.49   0.000   0.143   0.000    0.00
   9.200   16.94    1.21   -1.03   0.000   0.143   0.000    0.00
   9.250   17.13    2.27   -1.06   0.000   0.143   0.000    0.00
   9.300   17.04    2.09   -1.36   0.000   0.143   0.000    0.00
   9.350   16.82    1.83   -1.47   0.000   0.143   0.000    0.00
   9.400   16.85    2.74   -0.73   0.000   0.143   0.000    0.00
   9.450   16.91    3.03   -0.69   0.000   0.143   0.000    0.00
   9.500   17.09    4.39   -0.84   0.000   0.143   0.000    0.00
   9.550   16.64    3.62   -0.33   0.000   0.143   0.000    0.00
   9.600   16.75    1.76   -0.76   0.000   0.143   0.000    0.00
   9.650   16.72    3.51   -1.36   0.000   0.143   0.000    0.00
   9.700   16.73    3.56   -1.17   0.000   0.143   0.000    0.00
   9.750   16.71    2.58   -1.47   0.000   0.143   0.000    0.00
   9.800   16.44    2.47   -1.27   0.000   0.143   0.000    0.00
   9.850   16.62    2.36   -1.28   0.000   0.143   0.000    0.00
   9.900   16.66    2.17   -1.99   0.000   0.143   0.000    0.00
   9.950   16.58    1.06   -2.01   0.000   0.143   0.000    0.00
  10.000   16.70    0.43   -2.00   0.000   0.143   0.000    0.00
  10.050   16.86    1.06   -1.92   0.000   0.143   0.000    0.00
  10.100   17.09    1.71   -2.31   0.000   0.143   0.000    0.00
  10.150   17.20    2.24   -2.16   0.000   0.143   0.000    0.00
  10.200   16.75    2.45   -1.52   0.000   0.143   0.000    0.00
  10.250   16.82    2.54   -1.99   0.000   0.143   0.000    0.00
  10.300   16.94    2.57   -2.27   0.000   0.143   0.000    0.00
  10.350   16.59    4.33   -2.01   0.000   0.143   0.000    0.00
  10.400   16.10    5.08   -2.21   0.000   0.143   0.000    0.00
  10.450   16.14    5.48   -2.00   0.000   0.143   0.000    0.00
  10.500   16.40    4.98   -2.08   0.000   0.143   0.000    0.00
  10.550   16.72    4.63   -1.75   0.000   0.143   0.000    0.00
  10.600   16.80    4.05   -1.73   0.000   0.143   0.000    0.00
  10.650   17.02    5.36   -1.81   0.000   0.143   0.000    0.00
  10.700   17.16    6.18   -1.52   0.000   0.143   0.000    0.00
  10.750   17.09    6.29   -1.35   0.000   0.143   0.000    0.00
  10.800   16.75    5.34   -1.12   0.000   0.143   0.000    0.00
  10.850   16.54    5.14   -1.05   0.000   0.143   0.000    0.00
  10.900   16.56    4.74   -1.00   0.000   0.143   0.000    0.00
  10.950   16.49    4.00   -0.80   0.000   0.143   0.000    0.00
  11.000   16.33    3.95   -0.98   0.000   0.143   0.000    0.00
  11.050   16.34    3.01   -0.66   0.000   0.143   0.000    0.00
  11.100   15.95    3.75   -0.73   0.000   0.143   0.000    0.00
  11.150   16.26    3.00   -0.98   0.000   0.143   0.000    0.00
  11.200   16.29    2.00   -1.12   0.000   0.143   0.000    0.00
  11.250   16.10    1.47   -0.96   0.000   0.143   0.000    0.00
  11.300   15.78    0.59   -0.77   0.000   0.143   0.000    0.00
  11.350   16.02    0.28   -0.91   0.000   0.143   0.000    0.00
  11.400   15.69   -1.81   -0.95   0.000   0.143   0.000    0.00
  11.450   15.78   -3.43   -1.09   0.000   0.143   0.000    0.00
  11.500   15.60   -2.55   -0.98   0.000   0.143   0.000    0.00
  11.550   16.04   -0.93   -1.36   0.000   0.143   0.000    0.00
  11.600   16.45   -1.93   -1.02   0.000   0.143   0.000    0.00
  11.650   16.41   -0.40   -0.98   0.000   0.143   0.000    0.00
  11.700   15.96   -0.49   -0.78   0.000   0.143   0.000    0.00
  11.750   15.83    1.65   -0.39   0.000   0.143   0.000    0.00
  11.800   15.59    3.08   -0.51   0.000   0.143   0.000    0.00
  11.850   15.53    1.28   -0.10   0.000   0.143   0.000    0.00
  11.900   16.17   -0.67   -0.18   0.000   0.143   0.000    0.00
  11.950   16.40   -1.57   -0.19   0.000   0.143   0.000    0.00
  12.000   16.33   -0.14   -0.52   0.000   0.143   0.000    0.00
  12.050   15.90    0.58   -0.32   0.000   0.143   0.000    0.00
  12.100   15.97    0.24   -0.54   0.000   0.143   0.000    0.00
  12.150   16.26    0.00   -1.02   0.000   0.143   0.000    0.00
  12.200   16.43    0.76   -0.93   0.000   0.143   0.000    0.00
  12.250   16.37   -0.11   -1.47   0.000   0.143   0.000    0.00
  12.300   16.47   -0.82   -1.73   0.000   0.143   0.000    0.00
  12.350   16.39   -1.08   -1.79   0.000   0.143   0.000    0.00
  12.400   16.18   -0.61   -1.55   0.000   0.143   0.000    0.00
  12.450   16.11   -0.85   -1.42   0.000   0.143   0.000    0.00
  12.500   16.16   -0.30   -1.19   0.000   0.143   0.000    0.00
  12.550   16.26    0.98   -1.38   0.000   0.143   0.000    0.00
  12.600   16.00    1.87   -1.02   0.000   0.143   0.000    0.00
  12.650   15.87   -0.31   -1.73   0.000   0.143   0.000    0.00
  12.700   15.70   -0.08   -1.98   0.000   0.143   0.000    0.00
  12.750   15.40    1.66   -2.16   0.000   0.143   0.000    0.00
  12.800   15.43    0.69   -1.92   0.000   0.143   0.000    0.00
  12.850   15.64    0.94   -2.15   0.000   0.143   0.000    0.00
  12.900   15.75    0.92   -2.21   0.000   0.143   0.000    0.00
  12.950   16.02   -0.68   -2.13   0.000   0.143   0.000    0.00
  13.000   16.39   -1.75   -1.97   0.000   0.143   0.000    0.00
  13.050   16.80   -0.10   -1.95   0.000   0.143   0.000    0.00
  13.100   16.92   -0.08   -1.80   0.000   0.143   0.000    0.00
  13.150   16.72   -1.73   -1.86   0.000   0.143   0.000    0.00
  13.200   16.38   -2.66   -1.65   0.000   0.143   0.000    0.00
  13.250   16.39   -3.51   -1.50   0.000   0.143   0.000    0.00
  13.300   16.54   -2.11   -1.23   0.000   0.143   0.000    0.00
  13.350   16.22   -3.67   -0.91   0.000   0.143   0.000    0.00
  13.400   16.16   -2.54   -0.74   0.000   0.143   0.000    0.00
  13.450   16.75   -0.80   -0.97   0.000   0.143   0.000    0.00
  13.500   16.62    0.19   -1.23   0.000   0.143   0.000    0.00
  13.550   16.23   -0.62   -0.91   0.000   0.143   0.000    0.00
  13.600   16.04    0.23   -0.60   0.000   0.143   0.000    0.00
  13.650   16.28    0.22   -0.65   0.000   0.143   0.000    0.00
  13.700   16.50    2.09   -0.21   0.000   0.143   0.000    0.00
  13.750   16.35    1.81   -0.26   0.000   0.143   0.000    0.00
  13.800   16.41    2.74    0.03   0.000   0.143   0.000    0.00
  13.850   16.35    3.78   -0.15   0.000   0.143   0.000    0.00
  13.900   16.44    3.35   -0.45   0.000   0.143   0.000    0.00
  13.950   16.41    3.61   -0.69   0.000   0.143   0.000    0.00
  14.000   16.25    3.40   -0.04   0.000   0.143   0.000    0.00
  14.050   16.28    3.19    0.36   0.000   0.143   0.000    0.00
  14.100   16.51    3.18   -0.18   0.000   0.143   0.000    0.00
  14.150   16.19    3.38   -0.16   0.000   0.143   0.000    0.00
  14.200   16.55    3.98   -0.25   0.000   0.143   0.000    0.00
  14.250   16.28    5.21    0.12   0.000   0.143   0.000    0.00
  14.300   16.66    5.03   -0.23   0.000   0.143   0.000    0.00
  14.350   16.54    4.47   -0.34   0.000   0.143   0.000    0.00
  14.400   16.15    4.66   -0.18   0.000   0.143   0.000    0.00
  14.450   15.62    3.74   -0.27   0.000   0.143   0.000    0.00
  14.500   15.88    1.73   -0.08   0.000   0.143   0.000    0.00
  14.550   15.99    0.08   -0.05   0.000   0.143   0.000    0.00
  14.600   16.55   -0.41   -0.08   0.000   0.143   0.000    0.00
  14.650   16.21    2.08   -0.23   0.000   0.143   0.000    0.00
  14.700   16.00    2.75   -0.42   0.000   0.143   0.000    0.00
  14.750   16.07    3.29   -0.22   0.000   0.143   0.000    0.00
  14.800   16.07    3.86    0.24   0.000   0.143   0.000    0.00
  14.850   15.62    3.36    0.59   0.000   0.143   0.000    0.00
  14.900   15.57    3.41    0.66   0.000   0.143   0.000    0.00
  14.950   15.37    2.43    0.49   0.000   0.143   0.000    0.00
  15.000   15.40    2.16    0.42   0.000   0.143   0.000    0.00
  15.050   15.06    3.84    0.22   0.000   0.143   0.000    0.00
  15.100   15.25    3.11   -0.21   0.000   0.143   0.000    0.00
  15.150   15.20    4.15   -0.12   0.000   0.143   0.000    0.00
  15.200   15.31    3.26   -0.02   0.000   0.143   0.000    0.00
  15.250   15.33    3.26   -0.13   0.000   0.143   0.000    0.00
  15.300   15.19    3.86    0.25   0.000   0.143   0.000    0.00
  15.350   14.95    4.06    0.60   0.000   0.143   0.000    0.00
  15.400   14.88    3.95    0.87   0.000   0.143   0.000    0.00
  15.450   14.42    5.17    1.06   0.000   0.143   0.000    0.00
  15.500   14.17    5.30    1.39   0.000   0.143   0.000    0.00
  15.550   14.16    4.24    1.94   0.000   0.143   0.000    0.00
  15.600   14.40    5.07    1.94   0.000   0.143   0.000    0.00
  15.650   14.66    5.90    1.95   0.000   0.143   0.000    0.00
  15.700   14.62    5.22    1.96   0.000   0.143   0.000    0.00
  15.750   15.13    4.22    1.99   0.000   0.143   0.000    0.00
  15.800   15.04    4.23    1.89   0.000   0.143   0.000    0.00
  15.850   15.03    4.03    2.04   0.000   0.143   0.000    0.00
  15.900   14.97    3.71    2.11   0.000   0.143   0.000    0.00
  15.950   14.79    3.14    2.04   0.000   0.143   0.000    0.00
  16.000   14.55    2.90    2.30   0.000   0.143   0.000    0.00
  16.050   14.52    0.47    2.35   0.000   0.143   0.000    0.00
  16.100   14.66    3.18    2.36   0.000   0.143   0.000    0.00
  16.150   14.73    2.52    1.61   0.000   0.143   0.000    0.00
  16.200   14.85    2.46    1.93   0.000   0.143   0.000    0.00
  16.250   14.97    2.83    2.11   0.000   0.143   0.000    0.00
  16.300   14.92    1.75    1.81   0.000   0.143   0.000    0.00
  16.350   14.65    2.56    2.08   0.000   0.143   0.000    0.00
  16.400   14.57    5.05    2.09   0.000   0.143   0.000    0.00
  16.450   14.92    2.48    1.71   0.000   0.143   0.000    0.00
  16.500   15.08    2.49    1.63   0.000   0.143   0.000    0.00
  16.550   14.96    3.93    2.05   0.000   0.143   0.000    0.00
  16.600   15.12    4.26    1.81   0.000   0.143   0.000    0.00
  16.650   14.73    4.87    1.77   0.000   0.143   0.000    0.00
  16.700   14.98    5.58    1.74   0.000   0.143   0.000    0.00
  16.750   15.20    5.35    1.23   0.000   0.143   0.000    0.00
  16.800   15.38    4.97    1.24   0.000   0.143   0.000    0.00
  16.850   15.23    4.97    0.78   0.000   0.143   0.000    0.00
  16.900   15.21    3.99    0.51   0.000   0.143   0.000    0.00
  16.950   15.42    4.14    0.12   0.000   0.143   0.000    0.00
  17.000   15.34    4.57   -0.68   0.000   0.143   0.000    0.00
  17.050   15.49    6.50   -1.01   0.000   0.143   0.000    0.00
  17.100   15.67    7.69   -0.43   0.000   0.143   0.000    0.00
  17.150   15.55    7.56    0.44   0.000   0.143   0.000    0.00
  17.200   15.32    6.22    0.33   0.000   0.143   0.000    0.00
  17.250   15.27    7.39    0.13   0.000   0.143   0.000    0.00
  17.300   15.23    7.36    0.16   0.000   0.143   0.000    0.00
  17.350   15.46    8.22   -0.15   0.000   0.143   0.000    0.00
  17.400   15.40    8.59   -0.36   0.000   0.143   0.000    0.00
  17.450   15.35    9.55   -0.36   0.000   0.143   0.000    0.00
  17.500   15.62    9.73   -0.19   0.000   0.143   0.000    0.00
  17.550   15.45    9.67   -0.02   0.000   0.143   0.000    0.00
  17.600   15.41    9.02   -0.42   0.000   0.143   0.000    0.00
  17.650   15.14    9.63   -0.55   0.000   0.143   0.000    0.00
  17.700   15.22    8.30   -0.47   0.000   0.143   0.000    0.00
  17.750   15.03    8.06   -0.45   0.000   0.143   0.000    0.00
  17.800   14.63    8.60   -0.63   0.000   0.143   0.000    0.00
  17.850   14.95    8.44   -0.28   0.000   0.143   0.000    0.00
  17.900   14.91    8.01   -0.34   0.000   0.143   0.000    0.00
  17.950   14.42    8.68    0.11   0.000   0.143   0.000    0.00
  18.000   14.35    5.62    0.00   0.000   0.143   0.000    0.00
  18.050   14.22    3.84   -0.17   0.000   0.143   0.000    0.00
  18.100   14.33    3.28   -0.31   0.000   0.143   0.000    0.00
  18.150   14.39    3.43    0.31   0.000   0.143   0.000    0.00
  18.200   14.55    2.91    0.17   0.000   0.143   0.000    0.00
  18.250   14.44    2.57    0.05   0.000   0.143   0.000    0.00
  18.300   14.56    3.23   -0.10   0.000   0.143   0.000    0.00
  18.350   14.49    4.06    0.10   0.000   0.143   0.000    0.00
  18.400   14.53    4.99   -0.11   0.000   0.143   0.000    0.00
  18.450   14.38    3.03   -0.36   0.000   0.143   0.000    0.00
  18.500   14.49    2.67   -0.12   0.000   0.143   0.000    0.00
  18.550   14.71    2.10   -0.44   0.000   0.143   0.000    0.00
  18.600   15.09    1.19   -0.70   0.000   0.143   0.000    0.00
  18.650   15.34    1.60   -0.65   0.000   0.143   0.000    0.00
  18.700   15.10    1.41   -0.73   0.000   0.143   0.000    0.00
  18.750   15.02   -1.71    0.11   0.000   0.143   0.000    0.00
  18.800   14.72   -3.02   -0.32   0.000   0.143   0.000    0.00
  18.850   14.50   -0.02   -0.35   0.000   0.143   0.000    0.00
  18.900   14.34   -1.29    0.00   0.000   0.143   0.000    0.00
  18.950   14.71    0.24    0.26   0.000   0.143   0.000    0.00
  19.000   15.03    0.50    0.14   0.000   0.143   0.000    0.00
  19.050   14.56    0.94    0.15   0.000   0.143   0.000    0.00
  19.100   14.42    1.33    0.22   0.000   0.143   0.000    0.00
  19.150   14.82    1.86    0.14   0.000   0.143   0.000    0.00
  19.200   15.09    1.62    0.21   0.000   0.143   0.000    0.00
  19.250   15.69    2.16    0.29   0.000   0.143   0.000    0.00
  19.300   15.23    1.75    0.05   0.000   0.143   0.000    0.00
  19.350   14.94    1.26    0.30   0.000   0.143   0.000    0.00
  19.400   15.05    0.61    0.59   0.000   0.143   0.000    0.00
  19.450   15.07    0.17    0.22   0.000   0.143   0.000    0.00
  19.500   14.97    1.90    0.09   0.000   0.143   0.000    0.00
  19.550   15.03    1.76   -0.25   0.000   0.143   0.000    0.00
  19.600   14.79    3.08    0.12   0.000   0.143   0.000    0.00
  19.650   14.95    2.89    0.00   0.000   0.143   0.000    0.00
  19.700   14.99    2.55   -0.34   0.000   0.143   0.000    0.00
  19.750   15.18    2.23   -0.32   0.000   0.143   0.000    0.00
  19.800   15.06    3.14   -0.08   0.000   0.143   0.000    0.00
  19.850   14.63    4.39    0.06   0.000   0.143   0.000    0.00
  19.900   14.64    4.94   -0.08   0.000   0.143   0.000    0.00
  19.950   15.05    5.19   -0.27   0.000   0.143   0.000    0.00
  20.000   14.64    3.65   -0.43   0.000   0.143   0.000    0.00
  20.050   14.81    3.27   -0.57   0.000   0.143   0.000    0.00
  20.100   14.96    2.41   -0.42   0.000   0.143   0.000    0.00
  20.150   14.99    2.94   -0.52   0.000   0.143   0.000    0.00
  20.200   14.85    2.73   -0.47   0.000   0.143   0.000    0.00
  20.250   15.06    3.37   -0.43   0.000   0.143   0.000    0.00
  20.300   14.94    2.13   -0.14   0.000   0.143   0.000    0.00
  20.350   15.29    2.23   -0.02   0.000   0.143   0.000    0.00
  20.400   15.39    2.81   -0.06   0.000   0.143   0.000    0.00
  20.450   15.29    2.79   -0.25   0.000   0.143   0.000    0.00
  20.500   15.31    2.02   -0.10   0.000   0.143   0.000    0.00
  20.550   15.30    2.43   -0.29   0.000   0.143   0.000    0.00
  20.600   15.34    1.74    0.06   0.000   0.143   0.000    0.00
  20.650   15.28    2.21    0.16   0.000   0.143   0.000    0.00
  20.700   15.04    3.11    0.12   0.000   0.143   0.000    0.00
  20.750   15.32    3.84    0.47   0.000   0.143   0.000    0.00
  20.800   15.71    3.16    0.83   0.000   0.143   0.000    0.00
  20.850   16.38    2.40    0.65   0.000   0.143   0.000    0.00
  20.900   16.22    2.87    0.71   0.000   0.143   0.000    0.00
  20.950   15.49    3.94    0.86   0.000   0.143   0.000    0.00
  21.000   15.41    5.22    0.88   0.000   0.143   0.000    0.00
  21.050   15.46    3.64    0.76   0.000   0.143   0.000    0.00
  21.100   15.33    2.82    0.65   0.000   0.143   0.000    0.00
  21.150   15.54    3.44    0.67   0.000   0.143   0.000    0.00
  21.200   15.60    3.45    0.88   0.000   0.143   0.000    0.00
  21.250   15.73    4.84    1.01   0.000   0.143   0.000    0.00
  21.300   15.51    5.89    1.10   0.000   0.143   0.000    0.00
  21.350   15.57    4.13    1.13   0.000   0.143   0.000    0.00
  21.400   15.41    4.84    1.18   0.000   0.143   0.000    0.00
  21.450   15.42    5.40    0.81   0.000   0.143   0.000    0.00
  21.500   15.45    5.80    0.63   0.000   0.143   0.000    0.00
  21.550   15.72    5.37    1.36   0.000   0.143   0.000    0.00
  21.600   16.03    5.06    1.40   0.000   0.143   0.000    0.00
  21.650   15.68    5.51    1.16   0.000   0.143   0.000    0.00
  21.700   15.73    5.36    1.08   0.000   0.143   0.000    0.00
  21.750   15.58    4.98    1.44   0.000   0.143   0.000    0.00
  21.800   15.52    5.65    1.28   0.000   0.143   0.000    0.00
  21.850   15.70    5.66    1.47   0.000   0.143   0.000    0.00
  21.900   15.54    6.88    1.41   0.000   0.143   0.000    0.00
  21.950   15.33    5.84    1.61   0.000   0.143   0.000    0.00
  22.000   15.58    5.68    1.16   0.000   0.143   0.000    0.00
  22.050   15.70    5.78    1.25   0.000   0.143   0.000    0.00
  22.100   15.38    6.52    1.26   0.000   0.143   0.000    0.00
  22.150   15.21    7.38    0.52   0.000   0.143   0.000    0.00
  22.200   15.21    8.20    0.33   0.000   0.143   0.000    0.00
  22.250   15.04    8.85    0.57   0.000   0.143   0.000    0.00
  22.300   14.61    8.15    0.25   0.000   0.143   0.000    0.00
  22.350   14.23    8.95   -0.02   0.000   0.143   0.000    0.00
  22.400   14.27    7.01    0.05   0.000   0.143   0.000    0.00
  22.450   14.16    6.80   -0.26   0.000   0.143   0.000    0.00
  22.500   14.11    6.22   -0.04   0.000   0.143   0.000    0.00
  22.550   14.25    5.35    0.12   0.000   0.143   0.000    0.00
  22.600   14.22    5.04    0.06   0.000   0.143   0.000    0.00
  22.650   14.18    3.93   -0.36   0.000   0.143   0.000    0.00
  22.700   14.18    1.86    0.07   0.000   0.143   0.000    0.00
  22.750   13.96    1.50   -0.28   0.000   0.143   0.000    0.00