! This hub-height wind-speed file was generated by TurbSim (v1.06.00, 21-Sep-2012) on 07-Dec-2015 at 15:38:23.
!
! The requested statistics for this data were:
!    Mean Total Wind Speed =    9.000 m/s
!
!   Time  HorSpd  WndDir  VerSpd  HorShr  VerShr  LnVShr  GstSpd
!  (sec)   (m/s)   (deg)   (m/s)     (-)     (-)     (-)   (m/s)
   0.000   12.08    3.42   -1.24   0.000   0.143   0.000    0.00
   0.050   11.97    2.74   -1.12   0.000   0.143   0.000    0.00
   0.100   11.81    2.54   -1.10   0.000   0.143   0.000    0.00
   0.150   12.17    3.85   -0.96   0.000   0.143   0.000    0.00
   0.200   12.14    3.81   -0.91   0.000   0.143   0.000    0.00
   0.250   12.06    4.44   -0.85   0.000   0.143   0.000    0.00
   0.300   11.91    4.23   -0.71   0.000   0.143   0.000    0.00
   0.350   11.90    3.90   -0.79   0.000   0.143   0.000    0.00
   0.400   11.94    3.33   -0.63   0.000   0.143   0.000    0.00
   0.450   12.04    3.93   -0.62   0.000   0.143   0.000    0.00
   0.500   11.88    4.05   -0.72   0.000   0.143   0.000    0.00
   0.550   11.71    3.06   -0.80   0.000   0.143   0.000    0.00
   0.600   11.75    2.38   -0.77   0.000   0.143   0.000    0.00
   0.650   11.80    1.55   -0.80   0.000   0.143   0.000    0.00
   0.700   11.80    2.12   -0.92   0.000   0.143   0.000    0.00
   0.750   11.82    2.58   -0.76   0.000   0.143   0.000    0.00
   0.800   11.87    2.62   -0.51   0.000   0.143   0.000    0.00
   0.850   11.78    2.66   -0.85   0.000   0.143   0.000    0.00
   0.900   11.90    2.55   -1.22   0.000   0.143   0.000    0.00
   0.950   11.96    2.76   -1.36   0.000   0.143   0.000    0.00
   1.000   11.68    2.22   -1.50   0.000   0.143   0.000    0.00
   1.050   11.49    3.45   -1.49   0.000   0.143   0.000    0.00
   1.100   11.46    3.16   -1.43   0.000   0.143   0.000    0.00
   1.150   11.41    4.40   -1.27   0.000   0.143   0.000    0.00
   1.200   11.13    4.79   -1.38   0.000   0.143   0.000    0.00
   1.250   11.20    4.56   -1.29   0.000   0.143   0.000    0.00
   1.300   11.26    5.46   -1.34   0.000   0.143   0.000    0.00
   1.350   11.18    5.22   -1.21   0.000   0.143   0.000    0.00
   1.400   11.37    5.56   -1.32   0.000   0.143   0.000    0.00
   1.450   11.53    5.24   -1.53   0.000   0.143   0.000    0.00
   1.500   11.61    5.27   -1.48   0.000   0.143   0.000    0.00
   1.550   11.67    4.82   -1.32   0.000   0.143   0.000    0.00
   1.600   11.61    4.32   -1.50   0.000   0.143   0.000    0.00
   1.650   11.72    4.85   -1.47   0.000   0.143   0.000    0.00
   1.700   11.71    5.45   -1.48   0.000   0.143   0.000    0.00
   1.750   11.62    5.31   -1.06   0.000   0.143   0.000    0.00
   1.800   11.63    4.68   -1.07   0.000   0.143   0.000    0.00
   1.850   11.53    4.60   -1.28   0.000   0.143   0.000    0.00
   1.900   11.67    3.41   -1.19   0.000   0.143   0.000    0.00
   1.950   11.58    3.69   -1.31   0.000   0.143   0.000    0.00
   2.000   11.46    4.91   -1.40   0.000   0.143   0.000    0.00
   2.050   11.42    5.15   -1.07   0.000   0.143   0.000    0.00
   2.100   11.35    4.05   -1.21   0.000   0.143   0.000    0.00
   2.150   11.14    3.67   -1.18   0.000   0.143   0.000    0.00
   2.200   10.94    4.88   -1.29   0.000   0.143   0.000    0.00
   2.250   11.22    5.27   -1.05   0.000   0.143   0.000    0.00
   2.300   11.43    4.25   -1.07   0.000   0.143   0.000    0.00
   2.350   11.46    5.17   -1.15   0.000   0.143   0.000    0.00
   2.400   11.41    5.06   -1.34   0.000   0.143   0.000    0.00
   2.450   11.49    4.16   -1.54   0.000   0.143   0.000    0.00
   2.500   11.69    4.26   -1.65   0.000   0.143   0.000    0.00
   2.550   11.53    4.10   -1.63   0.000   0.143   0.000    0.00
   2.600   11.33    4.05   -1.88   0.000   0.143   0.000    0.00
   2.650   11.18    4.18   -1.95   0.000   0.143   0.000    0.00
   2.700   11.19    5.09   -1.71   0.000   0.143   0.000    0.00
   2.750   11.31    6.74   -1.70   0.000   0.143   0.000    0.00
   2.800   11.59    7.13   -1.69   0.000   0.143   0.000    0.00
   2.850   11.38    6.43   -1.50   0.000   0.143   0.000    0.00
   2.900   11.50    5.80   -1.49   0.000   0.143   0.000    0.00
   2.950   11.41    4.77   -1.36   0.000   0.143   0.000    0.00
   3.000   11.34    5.30   -1.39   0.000   0.143   0.000    0.00
   3.050   11.35    5.15   -1.39   0.000   0.143   0.000    0.00
   3.100   11.13    4.40   -1.24   0.000   0.143   0.000    0.00
   3.150   11.20    4.10   -1.07   0.000   0.143   0.000    0.00
   3.200   11.09    4.33   -0.92   0.000   0.143   0.000    0.00
   3.250   11.07    4.73   -0.82   0.000   0.143   0.000    0.00
   3.300   11.19    5.09   -1.04   0.000   0.143   0.000    0.00
   3.350   10.96    4.49   -1.02   0.000   0.143   0.000    0.00
   3.400   10.91    3.34   -1.08   0.000   0.143   0.000    0.00
   3.450   11.13    3.22   -1.02   0.000   0.143   0.000    0.00
   3.500   10.99    2.99   -1.04   0.000   0.143   0.000    0.00
   3.550   10.85    0.49   -1.07   0.000   0.143   0.000    0.00
   3.600   10.84    0.61   -1.10   0.000   0.143   0.000    0.00
   3.650   11.13    1.71   -1.07   0.000   0.143   0.000    0.00
   3.700   10.89    3.10   -1.08   0.000   0.143   0.000    0.00
   3.750   10.99    3.96   -1.14   0.000   0.143   0.000    0.00
   3.800   11.13    5.18   -1.24   0.000   0.143   0.000    0.00
   3.850   10.94    5.83   -1.23   0.000   0.143   0.000    0.00
   3.900   10.91    4.82   -1.22   0.000   0.143   0.000    0.00
   3.950   10.82    5.42   -1.34   0.000   0.143   0.000    0.00
   4.000   10.44    5.69   -1.34   0.000   0.143   0.000    0.00
   4.050   10.46    4.16   -1.51   0.000   0.143   0.000    0.00
   4.100   10.54    3.06   -1.67   0.000   0.143   0.000    0.00
   4.150   10.81    3.82   -1.75   0.000   0.143   0.000    0.00
   4.200   10.82    3.53   -1.83   0.000   0.143   0.000    0.00
   4.250   10.68    4.48   -1.89   0.000   0.143   0.000    0.00
   4.300   10.70    3.79   -1.68   0.000   0.143   0.000    0.00
   4.350   10.60    4.61   -1.52   0.000   0.143   0.000    0.00
   4.400   10.69    5.22   -1.36   0.000   0.143   0.000    0.00
   4.450   10.90    6.67   -1.28   0.000   0.143   0.000    0.00
   4.500   10.94    6.75   -1.24   0.000   0.143   0.000    0.00
   4.550   10.76    5.91   -1.15   0.000   0.143   0.000    0.00
   4.600   10.61    7.60   -1.15   0.000   0.143   0.000    0.00
   4.650   10.45    7.92   -0.96   0.000   0.143   0.000    0.00
   4.700   10.60    8.62   -0.93   0.000   0.143   0.000    0.00
   4.750   10.45    7.05   -0.81   0.000   0.143   0.000    0.00
   4.800   10.53    7.01   -0.92   0.000   0.143   0.000    0.00
   4.850   10.57    6.67   -0.80   0.000   0.143   0.000    0.00
   4.900   10.23    4.82   -0.63   0.000   0.143   0.000    0.00
   4.950   10.14    5.97   -0.68   0.000   0.143   0.000    0.00
   5.000   10.19    7.21   -0.63   0.000   0.143   0.000    0.00
   5.050   10.11    7.16   -0.88   0.000   0.143   0.000    0.00
   5.100   10.12    6.28   -0.85   0.000   0.143   0.000    0.00
   5.150    9.95    5.66   -0.96   0.000   0.143   0.000    0.00
   5.200   10.03    6.83   -0.97   0.000   0.143   0.000    0.00
   5.250    9.97    6.23   -0.98   0.000   0.143   0.000    0.00
   5.300   10.19    5.50   -1.05   0.000   0.143   0.000    0.00
   5.350   10.31    5.35   -0.98   0.000   0.143   0.000    0.00
   5.400   10.41    4.51   -1.03   0.000   0.143   0.000    0.00
   5.450   10.47    4.55   -1.16   0.000   0.143   0.000    0.00
   5.500   10.47    2.92   -1.17   0.000   0.143   0.000    0.00
   5.550   10.56    2.97   -1.37   0.000   0.143   0.000    0.00
   5.600   10.83    2.45   -1.48   0.000   0.143   0.000    0.00
   5.650   10.77    2.07   -1.60   0.000   0.143   0.000    0.00
   5.700   10.90    3.40   -1.40   0.000   0.143   0.000    0.00
   5.750   10.88    4.09   -1.19   0.000   0.143   0.000    0.00
   5.800   10.70    4.85   -1.41   0.000   0.143   0.000    0.00
   5.850   10.68    4.88   -1.39   0.000   0.143   0.000    0.00
   5.900   10.83    4.34   -1.50   0.000   0.143   0.000    0.00
   5.950   10.86    3.88   -1.17   0.000   0.143   0.000    0.00
   6.000   11.04    4.43   -1.17   0.000   0.143   0.000    0.00
   6.050   11.06    4.35   -1.19   0.000   0.143   0.000    0.00
   6.100   10.95    4.53   -1.15   0.000   0.143   0.000    0.00
   6.150   10.99    5.47   -1.20   0.000   0.143   0.000    0.00
   6.200   10.96    5.31   -1.27   0.000   0.143   0.000    0.00
   6.250   11.01    2.75   -1.23   0.000   0.143   0.000    0.00
   6.300   11.03    2.57   -1.25   0.000   0.143   0.000    0.00
   6.350   11.04    1.43   -1.24   0.000   0.143   0.000    0.00
   6.400   11.00    2.46   -1.18   0.000   0.143   0.000    0.00
   6.450   11.06    2.58   -1.08   0.000   0.143   0.000    0.00
   6.500   11.07    2.03   -1.12   0.000   0.143   0.000    0.00
   6.550   11.01    2.48   -1.22   0.000   0.143   0.000    0.00
   6.600   11.04    3.01   -1.26   0.000   0.143   0.000    0.00
   6.650   11.13    1.31   -1.17   0.000   0.143   0.000    0.00
   6.700   11.27    0.45   -1.08   0.000   0.143   0.000    0.00
   6.750   11.46   -0.11   -0.84   0.000   0.143   0.000    0.00
   6.800   11.25   -0.55   -0.71   0.000   0.143   0.000    0.00
   6.850   11.32   -1.20   -0.64   0.000   0.143   0.000    0.00
   6.900   11.05   -0.18   -0.79   0.000   0.143   0.000    0.00
   6.950   10.96   -0.69   -0.71   0.000   0.143   0.000    0.00
   7.000   10.98    0.66   -0.67   0.000   0.143   0.000    0.00
   7.050   11.03    2.07   -0.49   0.000   0.143   0.000    0.00
   7.100   11.05    0.70   -0.93   0.000   0.143   0.000    0.00
   7.150   10.91    0.54   -0.85   0.000   0.143   0.000    0.00
   7.200   10.88    0.94   -0.78   0.000   0.143   0.000    0.00
   7.250   10.93    2.49   -0.98   0.000   0.143   0.000    0.00
   7.300   10.91    3.76   -1.00   0.000   0.143   0.000    0.00
   7.350   10.73    3.14   -1.20   0.000   0.143   0.000    0.00
   7.400   10.97    4.43   -1.22   0.000   0.143   0.000    0.00
   7.450   11.08    3.75   -1.32   0.000   0.143   0.000    0.00
   7.500   11.13    2.22   -0.81   0.000   0.143   0.000    0.00
   7.550   11.37    2.33   -0.79   0.000   0.143   0.000    0.00
   7.600   11.34    3.04   -0.81   0.000   0.143   0.000    0.00
   7.650   11.30    2.44   -0.88   0.000   0.143   0.000    0.00
   7.700   11.16    3.37   -0.61   0.000   0.143   0.000    0.00
   7.750   11.26    3.60   -0.64   0.000   0.143   0.000    0.00
   7.800   11.15    2.70   -0.75   0.000   0.143   0.000    0.00
   7.850   11.16    2.61   -0.68   0.000   0.143   0.000    0.00
   7.900   11.18    2.19   -0.89   0.000   0.143   0.000    0.00
   7.950   10.94    2.95   -0.80   0.000   0.143   0.000    0.00
   8.000   10.90    4.13   -1.03   0.000   0.143   0.000    0.00
   8.050   11.02    4.78   -0.70   0.000   0.143   0.000    0.00
   8.100   11.05    4.20   -0.52   0.000   0.143   0.000    0.00
   8.150   10.92    3.68   -0.86   0.000   0.143   0.000    0.00
   8.200   10.75    4.53   -0.92   0.000   0.143   0.000    0.00
   8.250   10.76    5.49   -0.99   0.000   0.143   0.000    0.00
   8.300   10.80    5.85   -1.26   0.000   0.143   0.000    0.00
   8.350   10.79    5.35   -1.30   0.000   0.143   0.000    0.00
   8.400   10.78    4.39   -1.38   0.000   0.143   0.000    0.00
   8.450   10.78    4.49   -1.14   0.000   0.143   0.000    0.00
   8.500   11.06    5.58   -0.92   0.000   0.143   0.000    0.00
   8.550   11.16    5.60   -1.11   0.000   0.143   0.000    0.00
   8.600   11.04    5.07   -1.12   0.000   0.143   0.000    0.00
   8.650   11.09    5.23   -1.21   0.000   0.143   0.000    0.00
   8.700   10.95    4.93   -1.15   0.000   0.143   0.000    0.00
   8.750   11.18    5.16   -0.97   0.000   0.143   0.000    0.00
   8.800   11.00    5.44   -0.97   0.000   0.143   0.000    0.00
   8.850   10.83    5.73   -0.88   0.000   0.143   0.000    0.00
   8.900   10.73    4.14   -0.80   0.000   0.143   0.000    0.00
   8.950   10.63    3.77   -0.86   0.000   0.143   0.000    0.00
   9.000   10.66    2.38   -0.99   0.000   0.143   0.000    0.00
   9.050   10.89    2.00   -1.26   0.000   0.143   0.000    0.00
   9.100   10.94    2.95   -1.14   0.000   0.143   0.000    0.00
   9.150   10.91    2.85   -1.04   0.000   0.143   0.000    0.00
   9.200   10.98    2.04   -0.79   0.000   0.143   0.000    0.00
   9.250   11.08    2.94   -0.80   0.000   0.143   0.000    0.00
   9.300   11.03    2.79   -0.96   0.000   0.143   0.000    0.00
   9.350   10.91    2.57   -1.03   0.000   0.143   0.000    0.00
   9.400   10.93    3.35   -0.61   0.000   0.143   0.000    0.00
   9.450   10.96    3.59   -0.59   0.000   0.143   0.000    0.00
   9.500   11.06    4.75   -0.68   0.000   0.143   0.000    0.00
   9.550   10.81    4.10   -0.39   0.000   0.143   0.000    0.00
   9.600   10.87    2.50   -0.63   0.000   0.143   0.000    0.00
   9.650   10.85    4.00   -0.96   0.000   0.143   0.000    0.00
   9.700   10.86    4.04   -0.86   0.000   0.143   0.000    0.00
   9.750   10.85    3.21   -1.02   0.000   0.143   0.000    0.00
   9.800   10.70    3.12   -0.91   0.000   0.143   0.000    0.00
   9.850   10.80    3.01   -0.92   0.000   0.143   0.000    0.00
   9.900   10.82    2.85   -1.31   0.000   0.143   0.000    0.00
   9.950   10.77    1.90   -1.32   0.000   0.143   0.000    0.00
  10.000   10.84    1.36   -1.31   0.000   0.143   0.000    0.00
  10.050   10.92    1.89   -1.27   0.000   0.143   0.000    0.00
  10.100   11.06    2.44   -1.48   0.000   0.143   0.000    0.00
  10.150   11.12    2.89   -1.40   0.000   0.143   0.000    0.00
  10.200   10.87    3.08   -1.05   0.000   0.143   0.000    0.00
  10.250   10.91    3.15   -1.31   0.000   0.143   0.000    0.00
  10.300   10.97    3.18   -1.46   0.000   0.143   0.000    0.00
  10.350   10.78    4.69   -1.32   0.000   0.143   0.000    0.00
  10.400   10.51    5.34   -1.42   0.000   0.143   0.000    0.00
  10.450   10.53    5.68   -1.31   0.000   0.143   0.000    0.00
  10.500   10.68    5.24   -1.35   0.000   0.143   0.000    0.00
  10.550   10.86    4.94   -1.16   0.000   0.143   0.000    0.00
  10.600   10.89    4.44   -1.15   0.000   0.143   0.000    0.00
  10.650   11.02    5.56   -1.19   0.000   0.143   0.000    0.00
  10.700   11.10    6.26   -1.03   0.000   0.143   0.000    0.00
  10.750   11.06    6.35   -0.93   0.000   0.143   0.000    0.00
  10.800   10.87    5.54   -0.81   0.000   0.143   0.000    0.00
  10.850   10.75    5.37   -0.77   0.000   0.143   0.000    0.00
  10.900   10.76    5.03   -0.74   0.000   0.143   0.000    0.00
  10.950   10.72    4.40   -0.62   0.000   0.143   0.000    0.00
  11.000   10.63    4.35   -0.72   0.000   0.143   0.000    0.00
  11.050   10.64    3.55   -0.54   0.000   0.143   0.000    0.00
  11.100   10.42    4.19   -0.58   0.000   0.143   0.000    0.00
  11.150   10.59    3.54   -0.72   0.000   0.143   0.000    0.00
  11.200   10.61    2.68   -0.80   0.000   0.143   0.000    0.00
  11.250   10.50    2.24   -0.70   0.000   0.143   0.000    0.00
  11.300   10.32    1.50   -0.60   0.000   0.143   0.000    0.00
  11.350   10.45    1.22   -0.67   0.000   0.143   0.000    0.00
  11.400   10.27   -0.53   -0.70   0.000   0.143   0.000    0.00
  11.450   10.31   -1.92   -0.77   0.000   0.143   0.000    0.00
  11.500   10.21   -1.16   -0.71   0.000   0.143   0.000    0.00
  11.550   10.46    0.19   -0.92   0.000   0.143   0.000    0.00
  11.600   10.68   -0.69   -0.73   0.000   0.143   0.000    0.00
  11.650   10.67    0.61   -0.70   0.000   0.143   0.000    0.00
  11.700   10.42    0.56   -0.59   0.000   0.143   0.000    0.00
  11.750   10.35    2.38   -0.38   0.000   0.143   0.000    0.00
  11.800   10.22    3.60   -0.44   0.000   0.143   0.000    0.00
  11.850   10.18    2.08   -0.21   0.000   0.143   0.000    0.00
  11.900   10.53    0.39   -0.25   0.000   0.143   0.000    0.00
  11.950   10.66   -0.40   -0.26   0.000   0.143   0.000    0.00
  12.000   10.62    0.84   -0.44   0.000   0.143   0.000    0.00
  12.050   10.39    1.46   -0.32   0.000   0.143   0.000    0.00
  12.100   10.42    1.17   -0.45   0.000   0.143   0.000    0.00
  12.150   10.58    0.95   -0.71   0.000   0.143   0.000    0.00
  12.200   10.68    1.59   -0.66   0.000   0.143   0.000    0.00
  12.250   10.64    0.85   -0.96   0.000   0.143   0.000    0.00
  12.300   10.70    0.24   -1.10   0.000   0.143   0.000    0.00
  12.350   10.65    0.02   -1.13   0.000   0.143   0.000    0.00
  12.400   10.53    0.43   -1.00   0.000   0.143   0.000    0.00
  12.450   10.49    0.23   -0.92   0.000   0.143   0.000    0.00
  12.500   10.53    0.70   -0.80   0.000   0.143   0.000    0.00
  12.550   10.58    1.78   -0.90   0.000   0.143   0.000    0.00
  12.600   10.44    2.56   -0.70   0.000   0.143   0.000    0.00
  12.650   10.36    0.70   -1.09   0.000   0.143   0.000    0.00
  12.700   10.27    0.91   -1.23   0.000   0.143   0.000    0.00
  12.750   10.11    2.39   -1.33   0.000   0.143   0.000    0.00
  12.800   10.12    1.57   -1.19   0.000   0.143   0.000    0.00
  12.850   10.24    1.78   -1.32   0.000   0.143   0.000    0.00
  12.900   10.30    1.76   -1.35   0.000   0.143   0.000    0.00
  12.950   10.45    0.38   -1.30   0.000   0.143   0.000    0.00
  13.000   10.65   -0.55   -1.21   0.000   0.143   0.000    0.00
  13.050   10.88    0.84   -1.19   0.000   0.143   0.000    0.00
  13.100   10.95    0.85   -1.11   0.000   0.143   0.000    0.00
  13.150   10.83   -0.56   -1.14   0.000   0.143   0.000    0.00
  13.200   10.64   -1.33   -1.02   0.000   0.143   0.000    0.00
  13.250   10.64   -2.05   -0.94   0.000   0.143   0.000    0.00
  13.300   10.73   -0.86   -0.78   0.000   0.143   0.000    0.00
  13.350   10.54   -2.17   -0.60   0.000   0.143   0.000    0.00
  13.400   10.51   -1.21   -0.51   0.000   0.143   0.000    0.00
  13.450   10.85    0.25   -0.63   0.000   0.143   0.000    0.00
  13.500   10.78    1.10   -0.77   0.000   0.143   0.000    0.00
  13.550   10.56    0.43   -0.59   0.000   0.143   0.000    0.00
  13.600   10.46    1.17   -0.41   0.000   0.143   0.000    0.00
  13.650   10.59    1.15   -0.44   0.000   0.143   0.000    0.00
  13.700   10.71    2.74   -0.19   0.000   0.143   0.000    0.00
  13.750   10.63    2.51   -0.21   0.000   0.143   0.000    0.00
  13.800   10.66    3.30   -0.05   0.000   0.143   0.000    0.00
  13.850   10.63    4.19   -0.15   0.000   0.143   0.000    0.00
  13.900   10.68    3.83   -0.31   0.000   0.143   0.000    0.00
  13.950   10.67    4.05   -0.44   0.000   0.143   0.000    0.00
  14.000   10.58    3.88   -0.08   0.000   0.143   0.000    0.00
  14.050   10.59    3.70    0.15   0.000   0.143   0.000    0.00
  14.100   10.72    3.68   -0.15   0.000   0.143   0.000    0.00
  14.150   10.54    3.86   -0.14   0.000   0.143   0.000    0.00
  14.200   10.74    4.37   -0.18   0.000   0.143   0.000    0.00
  14.250   10.59    5.43    0.02   0.000   0.143   0.000    0.00
  14.300   10.80    5.27   -0.17   0.000   0.143   0.000    0.00
  14.350   10.74    4.79   -0.22   0.000   0.143   0.000    0.00
  14.400   10.52    4.97   -0.14   0.000   0.143   0.000    0.00
  14.450   10.23    4.19   -0.18   0.000   0.143   0.000    0.00
  14.500   10.36    2.48   -0.08   0.000   0.143   0.000    0.00
  14.550   10.42    1.07   -0.05   0.000   0.143   0.000    0.00
  14.600   10.73    0.63   -0.07   0.000   0.143   0.000    0.00
  14.650   10.55    2.77   -0.15   0.000   0.143   0.000    0.00
  14.700   10.43    3.35   -0.25   0.000   0.143   0.000    0.00
  14.750   10.47    3.81   -0.14   0.000   0.143   0.000    0.00
  14.800   10.47    4.30    0.12   0.000   0.143   0.000    0.00
  14.850   10.22    3.89    0.32   0.000   0.143   0.000    0.00
  14.900   10.19    3.93    0.36   0.000   0.143   0.000    0.00
  14.950   10.08    3.11    0.26   0.000   0.143   0.000    0.00
  15.000   10.10    2.88    0.23   0.000   0.143   0.000    0.00
  15.050    9.91    4.31    0.12   0.000   0.143   0.000    0.00
  15.100   10.01    3.69   -0.12   0.000   0.143   0.000    0.00
  15.150    9.99    4.57   -0.06   0.000   0.143   0.000    0.00
  15.200   10.05    3.82   -0.01   0.000   0.143   0.000    0.00
  15.250   10.06    3.82   -0.07   0.000   0.143   0.000    0.00
  15.300    9.98    4.34    0.15   0.000   0.143   0.000    0.00
  15.350    9.85    4.51    0.34   0.000   0.143   0.000    0.00
  15.400    9.81    4.42    0.49   0.000   0.143   0.000    0.00
  15.450    9.56    5.46    0.60   0.000   0.143   0.000    0.00
  15.500    9.41    5.57    0.79   0.000   0.143   0.000    0.00
  15.550    9.41    4.68    1.09   0.000   0.143   0.000    0.00
  15.600    9.54    5.37    1.10   0.000   0.143   0.000    0.00
  15.650    9.69    6.07    1.10   0.000   0.143   0.000    0.00
  15.700    9.67    5.50    1.12   0.000   0.143   0.000    0.00
  15.750    9.95    4.65    1.14   0.000   0.143   0.000    0.00
  15.800    9.90    4.66    1.08   0.000   0.143   0.000    0.00
  15.850    9.89    4.49    1.17   0.000   0.143   0.000    0.00
  15.900    9.86    4.23    1.21   0.000   0.143   0.000    0.00
  15.950    9.76    3.75    1.17   0.000   0.143   0.000    0.00
  16.000    9.62    3.56    1.32   0.000   0.143   0.000    0.00
  16.050    9.60    1.53    1.34   0.000   0.143   0.000    0.00
  16.100    9.68    3.80    1.35   0.000   0.143   0.000    0.00
  16.150    9.72    3.24    0.93   0.000   0.143   0.000    0.00
  16.200    9.78    3.19    1.11   0.000   0.143   0.000    0.00
  16.250    9.85    3.50    1.21   0.000   0.143   0.000    0.00
  16.300    9.82    2.59    1.05   0.000   0.143   0.000    0.00
  16.350    9.68    3.29    1.20   0.000   0.143   0.000    0.00
  16.400    9.63    5.38    1.20   0.000   0.143   0.000    0.00
  16.450    9.82    3.21    0.99   0.000   0.143   0.000    0.00
  16.500    9.91    3.21    0.95   0.000   0.143   0.000    0.00
  16.550    9.85    4.43    1.18   0.000   0.143   0.000    0.00
  16.600    9.94    4.70    1.05   0.000   0.143   0.000    0.00
  16.650    9.72    5.23    1.02   0.000   0.143   0.000    0.00
  16.700    9.86    5.83    1.01   0.000   0.143   0.000    0.00
  16.750    9.98    5.63    0.73   0.000   0.143   0.000    0.00
  16.800   10.09    5.31    0.73   0.000   0.143   0.000    0.00
  16.850   10.00    5.31    0.48   0.000   0.143   0.000    0.00
  16.900    9.99    4.49    0.33   0.000   0.143   0.000    0.00
  16.950   10.10    4.61    0.11   0.000   0.143   0.000    0.00
  17.000   10.06    4.97   -0.33   0.000   0.143   0.000    0.00
  17.050   10.14    6.61   -0.52   0.000   0.143   0.000    0.00
  17.100   10.24    7.62   -0.19   0.000   0.143   0.000    0.00
  17.150   10.18    7.51    0.28   0.000   0.143   0.000    0.00
  17.200   10.05    6.38    0.23   0.000   0.143   0.000    0.00
  17.250   10.02    7.36    0.11   0.000   0.143   0.000    0.00
  17.300   10.00    7.34    0.13   0.000   0.143   0.000    0.00
  17.350   10.13    8.07   -0.04   0.000   0.143   0.000    0.00
  17.400   10.09    8.38   -0.16   0.000   0.143   0.000    0.00
  17.450   10.06    9.19   -0.16   0.000   0.143   0.000    0.00
  17.500   10.21    9.35   -0.07   0.000   0.143   0.000    0.00
  17.550   10.12    9.30    0.03   0.000   0.143   0.000    0.00
  17.600   10.10    8.75   -0.19   0.000   0.143   0.000    0.00
  17.650    9.94    9.25   -0.27   0.000   0.143   0.000    0.00
  17.700    9.99    8.14   -0.22   0.000   0.143   0.000    0.00
  17.750    9.88    7.93   -0.21   0.000   0.143   0.000    0.00
  17.800    9.66    8.38   -0.32   0.000   0.143   0.000    0.00
  17.850    9.84    8.24   -0.12   0.000   0.143   0.000    0.00
  17.900    9.82    7.88   -0.15   0.000   0.143   0.000    0.00
  17.950    9.55    8.43    0.09   0.000   0.143   0.000    0.00
  18.000    9.51    5.87    0.03   0.000   0.143   0.000    0.00
  18.050    9.43    4.38   -0.06   0.000   0.143   0.000    0.00
  18.100    9.49    3.91   -0.14   0.000   0.143   0.000    0.00
  18.150    9.53    4.03    0.21   0.000   0.143   0.000    0.00
  18.200    9.61    3.59    0.13   0.000   0.143   0.000    0.00
  18.250    9.55    3.30    0.06   0.000   0.143   0.000    0.00
  18.300    9.62    3.85   -0.02   0.000   0.143   0.000    0.00
  18.350    9.58    4.55    0.09   0.000   0.143   0.000    0.00
  18.400    9.60    5.33   -0.03   0.000   0.143   0.000    0.00
  18.450    9.52    3.68   -0.16   0.000   0.143   0.000    0.00
  18.500    9.58    3.38   -0.03   0.000   0.143   0.000    0.00
  18.550    9.70    2.89   -0.20   0.000   0.143   0.000    0.00
  18.600    9.91    2.10   -0.34   0.000   0.143   0.000    0.00
  18.650   10.05    2.43   -0.32   0.000   0.143   0.000    0.00
  18.700    9.91    2.28   -0.36   0.000   0.143   0.000    0.00
  18.750    9.86   -0.35    0.10   0.000   0.143   0.000    0.00
  18.800    9.69   -1.43   -0.14   0.000   0.143   0.000    0.00
  18.850    9.58    1.10   -0.15   0.000   0.143   0.000    0.00
  18.900    9.48    0.05    0.04   0.000   0.143   0.000    0.00
  18.950    9.69    1.31    0.19   0.000   0.143   0.000    0.00
  19.000    9.87    1.51    0.12   0.000   0.143   0.000    0.00
  19.050    9.61    1.91    0.13   0.000   0.143   0.000    0.00
  19.100    9.53    2.24    0.17   0.000   0.143   0.000    0.00
  19.150    9.76    2.66    0.13   0.000   0.143   0.000    0.00
  19.200    9.91    2.45    0.16   0.000   0.143   0.000    0.00
  19.250   10.24    2.88    0.21   0.000   0.143   0.000    0.00
  19.300    9.98    2.55    0.08   0.000   0.143   0.000    0.00
  19.350    9.82    2.15    0.22   0.000   0.143   0.000    0.00
  19.400    9.88    1.60    0.38   0.000   0.143   0.000    0.00
  19.450    9.89    1.22    0.18   0.000   0.143   0.000    0.00
  19.500    9.84    2.69    0.11   0.000   0.143   0.000    0.00
  19.550    9.87    2.57   -0.08   0.000   0.143   0.000    0.00
  19.600    9.74    3.70    0.12   0.000   0.143   0.000    0.00
  19.650    9.83    3.53    0.06   0.000   0.143   0.000    0.00
  19.700    9.85    3.24   -0.13   0.000   0.143   0.000    0.00
  19.750    9.96    2.96   -0.12   0.000   0.143   0.000    0.00
  19.800    9.89    3.73    0.01   0.000   0.143   0.000    0.00
  19.850    9.65    4.80    0.09   0.000   0.143   0.000    0.00
  19.900    9.66    5.26    0.01   0.000   0.143   0.000    0.00
  19.950    9.89    5.47   -0.09   0.000   0.143   0.000    0.00
  20.000    9.66    4.18   -0.18   0.000   0.143   0.000    0.00
  20.050    9.75    3.85   -0.26   0.000   0.143   0.000    0.00
  20.100    9.83    3.12   -0.17   0.000   0.143   0.000    0.00
  20.150    9.85    3.57   -0.22   0.000   0.143   0.000    0.00
  20.200    9.77    3.40   -0.19   0.000   0.143   0.000    0.00
  20.250    9.89    3.93   -0.17   0.000   0.143   0.000    0.00
  20.300    9.82    2.89   -0.01   0.000   0.143   0.000    0.00
  20.350   10.02    2.96    0.06   0.000   0.143   0.000    0.00
  20.400   10.07    3.45    0.04   0.000   0.143   0.000    0.00
  20.450   10.01    3.43   -0.07   0.000   0.143   0.000    0.00
  20.500   10.02    2.78    0.02   0.000   0.143   0.000    0.00
  20.550   10.02    3.12   -0.08   0.000   0.143   0.000    0.00
  20.600   10.04    2.54    0.12   0.000   0.143   0.000    0.00
  20.650   10.01    2.94    0.17   0.000   0.143   0.000    0.00
  20.700    9.88    3.71    0.15   0.000   0.143   0.000    0.00
  20.750   10.03    4.32    0.35   0.000   0.143   0.000    0.00
  20.800   10.25    3.74    0.55   0.000   0.143   0.000    0.00
  20.850   10.62    3.06    0.46   0.000   0.143   0.000    0.00
  20.900   10.53    3.47    0.49   0.000   0.143   0.000    0.00
  20.950   10.13    4.41    0.57   0.000   0.143   0.000    0.00
  21.000   10.08    5.49    0.58   0.000   0.143   0.000    0.00
  21.050   10.11    4.15    0.52   0.000   0.143   0.000    0.00
  21.100   10.03    3.46    0.46   0.000   0.143   0.000    0.00
  21.150   10.16    3.98    0.47   0.000   0.143   0.000    0.00
  21.200   10.19    3.99    0.59   0.000   0.143   0.000    0.00
  21.250   10.26    5.16    0.66   0.000   0.143   0.000    0.00
  21.300   10.14    6.06    0.71   0.000   0.143   0.000    0.00
  21.350   10.17    4.56    0.73   0.000   0.143   0.000    0.00
  21.400   10.09    5.17    0.76   0.000   0.143   0.000    0.00
  21.450   10.09    5.65    0.56   0.000   0.143   0.000    0.00
  21.500   10.10    5.98    0.45   0.000   0.143   0.000    0.00
  21.550   10.25    5.62    0.86   0.000   0.143   0.000    0.00
  21.600   10.42    5.35    0.89   0.000   0.143   0.000    0.00
  21.650   10.23    5.74    0.75   0.000   0.143   0.000    0.00
  21.700   10.26    5.61    0.71   0.000   0.143   0.000    0.00
  21.750   10.18    5.29    0.91   0.000   0.143   0.000    0.00
  21.800   10.14    5.86    0.82   0.000   0.143   0.000    0.00
  21.850   10.24    5.87    0.93   0.000   0.143   0.000    0.00
  21.900   10.15    6.90    0.90   0.000   0.143   0.000    0.00
  21.950   10.04    6.02    1.01   0.000   0.143   0.000    0.00
  22.000   10.18    5.88    0.76   0.000   0.143   0.000    0.00
  22.050   10.24    5.96    0.81   0.000   0.143   0.000    0.00
  22.100   10.06    6.59    0.82   0.000   0.143   0.000    0.00
  22.150    9.97    7.32    0.40   0.000   0.143   0.000    0.00
  22.200    9.97    8.02    0.30   0.000   0.143   0.000    0.00
  22.250    9.87    8.56    0.43   0.000   0.143   0.000    0.00
  22.300    9.63    7.97    0.25   0.000   0.143   0.000    0.00
  22.350    9.43    8.63    0.10   0.000   0.143   0.000    0.00
  22.400    9.45    7.00    0.13   0.000   0.143   0.000    0.00
  22.450    9.39    6.83   -0.04   0.000   0.143   0.000    0.00
  22.500    9.36    6.34    0.08   0.000   0.143   0.000    0.00
  22.550    9.43    5.61    0.18   0.000   0.143   0.000    0.00
  22.600    9.42    5.34    0.14   0.000   0.143   0.000    0.00
  22.650    9.40    4.42   -0.09   0.000   0.143   0.000    0.00
  22.700    9.39    2.68    0.15   0.000   0.143   0.000    0.00
  22.750    9.27    2.39   -0.05   0.000   0.143   0.000    0.00