! This hub-height wind-speed file was generated by TurbSim (v1.06.00, 21-Sep-2012) on 06-Dec-2015 at 18:52:07.
!
! The requested statistics for this data were:
!    Mean Total Wind Speed =   13.000 m/s
!
!   Time  HorSpd  WndDir  VerSpd  HorShr  VerShr  LnVShr  GstSpd
!  (sec)   (m/s)   (deg)   (m/s)     (-)     (-)     (-)   (m/s)
   0.000   17.55    2.84   -1.77   0.000   0.143   0.000    0.00
   0.050   17.36    2.08   -1.56   0.000   0.143   0.000    0.00
   0.100   17.11    1.84   -1.52   0.000   0.143   0.000    0.00
   0.150   17.69    3.33   -1.31   0.000   0.143   0.000    0.00
   0.200   17.64    3.29   -1.22   0.000   0.143   0.000    0.00
   0.250   17.51    3.99   -1.12   0.000   0.143   0.000    0.00
   0.300   17.26    3.75   -0.89   0.000   0.143   0.000    0.00
   0.350   17.24    3.38   -1.01   0.000   0.143   0.000    0.00
   0.400   17.31    2.74   -0.75   0.000   0.143   0.000    0.00
   0.450   17.48    3.42   -0.74   0.000   0.143   0.000    0.00
   0.500   17.21    3.55   -0.90   0.000   0.143   0.000    0.00
   0.550   16.94    2.43   -1.02   0.000   0.143   0.000    0.00
   0.600   17.02    1.66   -0.97   0.000   0.143   0.000    0.00
   0.650   17.10    0.73   -1.02   0.000   0.143   0.000    0.00
   0.700   17.09    1.37   -1.21   0.000   0.143   0.000    0.00
   0.750   17.13    1.89   -0.95   0.000   0.143   0.000    0.00
   0.800   17.20    1.93   -0.54   0.000   0.143   0.000    0.00
   0.850   17.06    1.98   -1.09   0.000   0.143   0.000    0.00
   0.900   17.26    1.86   -1.70   0.000   0.143   0.000    0.00
   0.950   17.35    2.10   -1.93   0.000   0.143   0.000    0.00
   1.000   16.90    1.47   -2.15   0.000   0.143   0.000    0.00
   1.050   16.58    2.85   -2.12   0.000   0.143   0.000    0.00
   1.100   16.53    2.52   -2.02   0.000   0.143   0.000    0.00
   1.150   16.45    3.92   -1.75   0.000   0.143   0.000    0.00
   1.200   15.98    4.35   -1.93   0.000   0.143   0.000    0.00
   1.250   16.11    4.09   -1.79   0.000   0.143   0.000    0.00
   1.300   16.19    5.11   -1.86   0.000   0.143   0.000    0.00
   1.350   16.07    4.84   -1.65   0.000   0.143   0.000    0.00
   1.400   16.39    5.22   -1.83   0.000   0.143   0.000    0.00
   1.450   16.64    4.87   -2.18   0.000   0.143   0.000    0.00
   1.500   16.78    4.91   -2.09   0.000   0.143   0.000    0.00
   1.550   16.87    4.40   -1.82   0.000   0.143   0.000    0.00
   1.600   16.78    3.83   -2.13   0.000   0.143   0.000    0.00
   1.650   16.94    4.44   -2.07   0.000   0.143   0.000    0.00
   1.700   16.93    5.11   -2.08   0.000   0.143   0.000    0.00
   1.750   16.79    4.95   -1.40   0.000   0.143   0.000    0.00
   1.800   16.80    4.25   -1.42   0.000   0.143   0.000    0.00
   1.850   16.65    4.15   -1.75   0.000   0.143   0.000    0.00
   1.900   16.88    2.81   -1.60   0.000   0.143   0.000    0.00
   1.950   16.72    3.13   -1.81   0.000   0.143   0.000    0.00
   2.000   16.52    4.50   -1.95   0.000   0.143   0.000    0.00
   2.050   16.45    4.77   -1.41   0.000   0.143   0.000    0.00
   2.100   16.35    3.52   -1.62   0.000   0.143   0.000    0.00
   2.150   16.01    3.07   -1.57   0.000   0.143   0.000    0.00
   2.200   15.68    4.44   -1.75   0.000   0.143   0.000    0.00
   2.250   16.13    4.89   -1.36   0.000   0.143   0.000    0.00
   2.300   16.47    3.74   -1.40   0.000   0.143   0.000    0.00
   2.350   16.53    4.79   -1.52   0.000   0.143   0.000    0.00
   2.400   16.44    4.66   -1.84   0.000   0.143   0.000    0.00
   2.450   16.58    3.66   -2.16   0.000   0.143   0.000    0.00
   2.500   16.91    3.77   -2.34   0.000   0.143   0.000    0.00
   2.550   16.64    3.58   -2.31   0.000   0.143   0.000    0.00
   2.600   16.31    3.52   -2.71   0.000   0.143   0.000    0.00
   2.650   16.07    3.66   -2.82   0.000   0.143   0.000    0.00
   2.700   16.08    4.69   -2.43   0.000   0.143   0.000    0.00
   2.750   16.27    6.56   -2.41   0.000   0.143   0.000    0.00
   2.800   16.73    7.02   -2.40   0.000   0.143   0.000    0.00
   2.850   16.40    6.22   -2.09   0.000   0.143   0.000    0.00
   2.900   16.58    5.51   -2.08   0.000   0.143   0.000    0.00
   2.950   16.44    4.34   -1.85   0.000   0.143   0.000    0.00
   3.000   16.33    4.94   -1.90   0.000   0.143   0.000    0.00
   3.050   16.34    4.77   -1.91   0.000   0.143   0.000    0.00
   3.100   15.99    3.91   -1.67   0.000   0.143   0.000    0.00
   3.150   16.10    3.58   -1.39   0.000   0.143   0.000    0.00
   3.200   15.93    3.83   -1.14   0.000   0.143   0.000    0.00
   3.250   15.89    4.28   -0.98   0.000   0.143   0.000    0.00
   3.300   16.08    4.70   -1.34   0.000   0.143   0.000    0.00
   3.350   15.71    4.01   -1.29   0.000   0.143   0.000    0.00
   3.400   15.64    2.70   -1.39   0.000   0.143   0.000    0.00
   3.450   15.99    2.57   -1.29   0.000   0.143   0.000    0.00
   3.500   15.77    2.31   -1.32   0.000   0.143   0.000    0.00
   3.550   15.55   -0.55   -1.37   0.000   0.143   0.000    0.00
   3.600   15.53   -0.41   -1.43   0.000   0.143   0.000    0.00
   3.650   16.00    0.87   -1.37   0.000   0.143   0.000    0.00
   3.700   15.60    2.43   -1.40   0.000   0.143   0.000    0.00
   3.750   15.76    3.42   -1.49   0.000   0.143   0.000    0.00
   3.800   16.00    4.81   -1.66   0.000   0.143   0.000    0.00
   3.850   15.68    5.54   -1.63   0.000   0.143   0.000    0.00
   3.900   15.63    4.39   -1.62   0.000   0.143   0.000    0.00
   3.950   15.49    5.07   -1.81   0.000   0.143   0.000    0.00
   4.000   14.86    5.37   -1.80   0.000   0.143   0.000    0.00
   4.050   14.90    3.61   -2.09   0.000   0.143   0.000    0.00
   4.100   15.04    2.36   -2.34   0.000   0.143   0.000    0.00
   4.150   15.47    3.24   -2.48   0.000   0.143   0.000    0.00
   4.200   15.49    2.92   -2.61   0.000   0.143   0.000    0.00
   4.250   15.26    4.00   -2.71   0.000   0.143   0.000    0.00
   4.300   15.30    3.20   -2.37   0.000   0.143   0.000    0.00
   4.350   15.13    4.14   -2.11   0.000   0.143   0.000    0.00
   4.400   15.27    4.84   -1.84   0.000   0.143   0.000    0.00
   4.450   15.61    6.51   -1.71   0.000   0.143   0.000    0.00
   4.500   15.68    6.59   -1.65   0.000   0.143   0.000    0.00
   4.550   15.39    5.63   -1.50   0.000   0.143   0.000    0.00
   4.600   15.13    7.56   -1.51   0.000   0.143   0.000    0.00
   4.650   14.88    7.93   -1.20   0.000   0.143   0.000    0.00
   4.700   15.12    8.73   -1.14   0.000   0.143   0.000    0.00
   4.750   14.88    6.94   -0.94   0.000   0.143   0.000    0.00
   4.800   15.02    6.89   -1.13   0.000   0.143   0.000    0.00
   4.850   15.07    6.50   -0.94   0.000   0.143   0.000    0.00
   4.900   14.52    4.37   -0.65   0.000   0.143   0.000    0.00
   4.950   14.37    5.69   -0.74   0.000   0.143   0.000    0.00
   5.000   14.45    7.13   -0.65   0.000   0.143   0.000    0.00
   5.050   14.33    7.06   -1.06   0.000   0.143   0.000    0.00
   5.100   14.34    6.06   -1.02   0.000   0.143   0.000    0.00
   5.150   14.06    5.33   -1.19   0.000   0.143   0.000    0.00
   5.200   14.20    6.69   -1.21   0.000   0.143   0.000    0.00
   5.250   14.09    6.00   -1.22   0.000   0.143   0.000    0.00
   5.300   14.46    5.17   -1.33   0.000   0.143   0.000    0.00
   5.350   14.65    5.01   -1.23   0.000   0.143   0.000    0.00
   5.400   14.82    4.05   -1.31   0.000   0.143   0.000    0.00
   5.450   14.91    4.10   -1.53   0.000   0.143   0.000    0.00
   5.500   14.91    2.22   -1.54   0.000   0.143   0.000    0.00
   5.550   15.07    2.30   -1.87   0.000   0.143   0.000    0.00
   5.600   15.52    1.72   -2.05   0.000   0.143   0.000    0.00
   5.650   15.41    1.29   -2.25   0.000   0.143   0.000    0.00
   5.700   15.62    2.82   -1.92   0.000   0.143   0.000    0.00
   5.750   15.58    3.60   -1.58   0.000   0.143   0.000    0.00
   5.800   15.30    4.46   -1.94   0.000   0.143   0.000    0.00
   5.850   15.26    4.50   -1.90   0.000   0.143   0.000    0.00
   5.900   15.50    3.89   -2.09   0.000   0.143   0.000    0.00
   5.950   15.56    3.37   -1.56   0.000   0.143   0.000    0.00
   6.000   15.85    4.01   -1.56   0.000   0.143   0.000    0.00
   6.050   15.88    3.92   -1.58   0.000   0.143   0.000    0.00
   6.100   15.69    4.11   -1.52   0.000   0.143   0.000    0.00
   6.150   15.76    5.19   -1.61   0.000   0.143   0.000    0.00
   6.200   15.71    5.01   -1.73   0.000   0.143   0.000    0.00
   6.250   15.81    2.10   -1.67   0.000   0.143   0.000    0.00
   6.300   15.84    1.90   -1.70   0.000   0.143   0.000    0.00
   6.350   15.86    0.61   -1.68   0.000   0.143   0.000    0.00
   6.400   15.79    1.78   -1.59   0.000   0.143   0.000    0.00
   6.450   15.88    1.92   -1.42   0.000   0.143   0.000    0.00
   6.500   15.91    1.30   -1.49   0.000   0.143   0.000    0.00
   6.550   15.81    1.81   -1.65   0.000   0.143   0.000    0.00
   6.600   15.86    2.42   -1.73   0.000   0.143   0.000    0.00
   6.650   16.00    0.49   -1.57   0.000   0.143   0.000    0.00
   6.700   16.24   -0.47   -1.43   0.000   0.143   0.000    0.00
   6.750   16.55   -1.08   -1.05   0.000   0.143   0.000    0.00
   6.800   16.21   -1.60   -0.83   0.000   0.143   0.000    0.00
   6.850   16.33   -2.33   -0.72   0.000   0.143   0.000    0.00
   6.900   15.88   -1.20   -0.97   0.000   0.143   0.000    0.00
   6.950   15.74   -1.79   -0.83   0.000   0.143   0.000    0.00
   7.000   15.77   -0.26   -0.76   0.000   0.143   0.000    0.00
   7.050   15.84    1.35   -0.47   0.000   0.143   0.000    0.00
   7.100   15.88   -0.20   -1.19   0.000   0.143   0.000    0.00
   7.150   15.66   -0.39   -1.06   0.000   0.143   0.000    0.00
   7.200   15.61    0.06   -0.94   0.000   0.143   0.000    0.00
   7.250   15.68    1.83   -1.27   0.000   0.143   0.000    0.00
   7.300   15.65    3.27   -1.31   0.000   0.143   0.000    0.00
   7.350   15.34    2.56   -1.64   0.000   0.143   0.000    0.00
   7.400   15.74    4.04   -1.67   0.000   0.143   0.000    0.00
   7.450   15.91    3.27   -1.84   0.000   0.143   0.000    0.00
   7.500   16.01    1.54   -1.00   0.000   0.143   0.000    0.00
   7.550   16.39    1.68   -0.98   0.000   0.143   0.000    0.00
   7.600   16.34    2.48   -1.02   0.000   0.143   0.000    0.00
   7.650   16.28    1.80   -1.12   0.000   0.143   0.000    0.00
   7.700   16.05    2.84   -0.68   0.000   0.143   0.000    0.00
   7.750   16.22    3.12   -0.73   0.000   0.143   0.000    0.00
   7.800   16.04    2.08   -0.92   0.000   0.143   0.000    0.00
   7.850   16.05    1.98   -0.80   0.000   0.143   0.000    0.00
   7.900   16.09    1.51   -1.14   0.000   0.143   0.000    0.00
   7.950   15.69    2.36   -1.00   0.000   0.143   0.000    0.00
   8.000   15.63    3.70   -1.38   0.000   0.143   0.000    0.00
   8.050   15.82    4.45   -0.84   0.000   0.143   0.000    0.00
   8.100   15.88    3.79   -0.54   0.000   0.143   0.000    0.00
   8.150   15.66    3.19   -1.09   0.000   0.143   0.000    0.00
   8.200   15.38    4.16   -1.19   0.000   0.143   0.000    0.00
   8.250   15.40    5.25   -1.31   0.000   0.143   0.000    0.00
   8.300   15.46    5.66   -1.75   0.000   0.143   0.000    0.00
   8.350   15.44    5.09   -1.81   0.000   0.143   0.000    0.00
   8.400   15.43    4.00   -1.94   0.000   0.143   0.000    0.00
   8.450   15.42    4.11   -1.56   0.000   0.143   0.000    0.00
   8.500   15.88    5.36   -1.20   0.000   0.143   0.000    0.00
   8.550   16.05    5.39   -1.50   0.000   0.143   0.000    0.00
   8.600   15.86    4.78   -1.53   0.000   0.143   0.000    0.00
   8.650   15.93    4.97   -1.67   0.000   0.143   0.000    0.00
   8.700   15.71    4.62   -1.58   0.000   0.143   0.000    0.00
   8.750   16.09    4.89   -1.28   0.000   0.143   0.000    0.00
   8.800   15.79    5.21   -1.29   0.000   0.143   0.000    0.00
   8.850   15.50    5.53   -1.13   0.000   0.143   0.000    0.00
   8.900   15.35    3.71   -1.00   0.000   0.143   0.000    0.00
   8.950   15.18    3.29   -1.10   0.000   0.143   0.000    0.00
   9.000   15.24    1.70   -1.32   0.000   0.143   0.000    0.00
   9.050   15.61    1.29   -1.76   0.000   0.143   0.000    0.00
   9.100   15.70    2.38   -1.56   0.000   0.143   0.000    0.00
   9.150   15.65    2.27   -1.41   0.000   0.143   0.000    0.00
   9.200   15.76    1.35   -0.99   0.000   0.143   0.000    0.00
   9.250   15.93    2.38   -1.01   0.000   0.143   0.000    0.00
   9.300   15.85    2.20   -1.28   0.000   0.143   0.000    0.00
   9.350   15.65    1.95   -1.39   0.000   0.143   0.000    0.00
   9.400   15.67    2.84   -0.72   0.000   0.143   0.000    0.00
   9.450   15.73    3.12   -0.68   0.000   0.143   0.000    0.00
   9.500   15.90    4.44   -0.82   0.000   0.143   0.000    0.00
   9.550   15.49    3.69   -0.35   0.000   0.143   0.000    0.00
   9.600   15.59    1.88   -0.74   0.000   0.143   0.000    0.00
   9.650   15.56    3.58   -1.28   0.000   0.143   0.000    0.00
   9.700   15.56    3.63   -1.11   0.000   0.143   0.000    0.00
   9.750   15.55    2.68   -1.39   0.000   0.143   0.000    0.00
   9.800   15.31    2.57   -1.20   0.000   0.143   0.000    0.00
   9.850   15.47    2.46   -1.21   0.000   0.143   0.000    0.00
   9.900   15.50    2.28   -1.86   0.000   0.143   0.000    0.00
   9.950   15.43    1.20   -1.87   0.000   0.143   0.000    0.00
  10.000   15.54    0.59   -1.86   0.000   0.143   0.000    0.00
  10.050   15.68    1.19   -1.79   0.000   0.143   0.000    0.00
  10.100   15.89    1.83   -2.15   0.000   0.143   0.000    0.00
  10.150   15.99    2.34   -2.01   0.000   0.143   0.000    0.00
  10.200   15.59    2.55   -1.43   0.000   0.143   0.000    0.00
  10.250   15.65    2.64   -1.86   0.000   0.143   0.000    0.00
  10.300   15.76    2.67   -2.11   0.000   0.143   0.000    0.00
  10.350   15.44    4.38   -1.88   0.000   0.143   0.000    0.00
  10.400   15.00    5.11   -2.05   0.000   0.143   0.000    0.00
  10.450   15.04    5.50   -1.87   0.000   0.143   0.000    0.00
  10.500   15.27    5.01   -1.93   0.000   0.143   0.000    0.00
  10.550   15.56    4.68   -1.64   0.000   0.143   0.000    0.00
  10.600   15.63    4.11   -1.62   0.000   0.143   0.000    0.00
  10.650   15.83    5.38   -1.69   0.000   0.143   0.000    0.00
  10.700   15.96    6.18   -1.42   0.000   0.143   0.000    0.00
  10.750   15.89    6.28   -1.27   0.000   0.143   0.000    0.00
  10.800   15.59    5.37   -1.07   0.000   0.143   0.000    0.00
  10.850   15.40    5.17   -1.00   0.000   0.143   0.000    0.00
  10.900   15.41    4.78   -0.96   0.000   0.143   0.000    0.00
  10.950   15.34    4.06   -0.77   0.000   0.143   0.000    0.00
  11.000   15.20    4.01   -0.93   0.000   0.143   0.000    0.00
  11.050   15.21    3.09   -0.64   0.000   0.143   0.000    0.00
  11.100   14.86    3.81   -0.71   0.000   0.143   0.000    0.00
  11.150   15.14    3.09   -0.94   0.000   0.143   0.000    0.00
  11.200   15.17    2.11   -1.06   0.000   0.143   0.000    0.00
  11.250   14.99    1.60   -0.91   0.000   0.143   0.000    0.00
  11.300   14.70    0.74   -0.74   0.000   0.143   0.000    0.00
  11.350   14.92    0.44   -0.87   0.000   0.143   0.000    0.00
  11.400   14.62   -1.59   -0.91   0.000   0.143   0.000    0.00
  11.450   14.70   -3.17   -1.03   0.000   0.143   0.000    0.00
  11.500   14.53   -2.31   -0.94   0.000   0.143   0.000    0.00
  11.550   14.93   -0.74   -1.27   0.000   0.143   0.000    0.00
  11.600   15.31   -1.72   -0.97   0.000   0.143   0.000    0.00
  11.650   15.27   -0.23   -0.93   0.000   0.143   0.000    0.00
  11.700   14.87   -0.31   -0.75   0.000   0.143   0.000    0.00
  11.750   14.75    1.77   -0.40   0.000   0.143   0.000    0.00
  11.800   14.53    3.16   -0.50   0.000   0.143   0.000    0.00
  11.850   14.47    1.40   -0.14   0.000   0.143   0.000    0.00
  11.900   15.06   -0.49   -0.20   0.000   0.143   0.000    0.00
  11.950   15.26   -1.38   -0.22   0.000   0.143   0.000    0.00
  12.000   15.20    0.02   -0.51   0.000   0.143   0.000    0.00
  12.050   14.81    0.72   -0.33   0.000   0.143   0.000    0.00
  12.100   14.88    0.39   -0.53   0.000   0.143   0.000    0.00
  12.150   15.13    0.15   -0.96   0.000   0.143   0.000    0.00
  12.200   15.29    0.90   -0.88   0.000   0.143   0.000    0.00
  12.250   15.24    0.05   -1.37   0.000   0.143   0.000    0.00
  12.300   15.32   -0.64   -1.61   0.000   0.143   0.000    0.00
  12.350   15.26   -0.90   -1.66   0.000   0.143   0.000    0.00
  12.400   15.06   -0.44   -1.44   0.000   0.143   0.000    0.00
  12.450   15.00   -0.67   -1.32   0.000   0.143   0.000    0.00
  12.500   15.05   -0.13   -1.11   0.000   0.143   0.000    0.00
  12.550   15.14    1.11   -1.29   0.000   0.143   0.000    0.00
  12.600   14.90    1.98   -0.96   0.000   0.143   0.000    0.00
  12.650   14.78   -0.14   -1.60   0.000   0.143   0.000    0.00
  12.700   14.63    0.08   -1.83   0.000   0.143   0.000    0.00
  12.750   14.36    1.77   -1.99   0.000   0.143   0.000    0.00
  12.800   14.39    0.83   -1.77   0.000   0.143   0.000    0.00
  12.850   14.58    1.08   -1.98   0.000   0.143   0.000    0.00
  12.900   14.67    1.06   -2.04   0.000   0.143   0.000    0.00
  12.950   14.92   -0.51   -1.96   0.000   0.143   0.000    0.00
  13.000   15.25   -1.55   -1.82   0.000   0.143   0.000    0.00
  13.050   15.63    0.05   -1.80   0.000   0.143   0.000    0.00
  13.100   15.73    0.07   -1.66   0.000   0.143   0.000    0.00
  13.150   15.55   -1.54   -1.72   0.000   0.143   0.000    0.00
  13.200   15.24   -2.44   -1.52   0.000   0.143   0.000    0.00
  13.250   15.25   -3.26   -1.39   0.000   0.143   0.000    0.00
  13.300   15.39   -1.90   -1.14   0.000   0.143   0.000    0.00
  13.350   15.10   -3.41   -0.85   0.000   0.143   0.000    0.00
  13.400   15.04   -2.32   -0.70   0.000   0.143   0.000    0.00
  13.450   15.58   -0.63   -0.90   0.000   0.143   0.000    0.00
  13.500   15.46    0.34   -1.14   0.000   0.143   0.000    0.00
  13.550   15.11   -0.45   -0.85   0.000   0.143   0.000    0.00
  13.600   14.94    0.38   -0.56   0.000   0.143   0.000    0.00
  13.650   15.15    0.37   -0.61   0.000   0.143   0.000    0.00
  13.700   15.35    2.19   -0.21   0.000   0.143   0.000    0.00
  13.750   15.22    1.93   -0.25   0.000   0.143   0.000    0.00
  13.800   15.27    2.83    0.01   0.000   0.143   0.000    0.00
  13.850   15.21    3.84   -0.15   0.000   0.143   0.000    0.00
  13.900   15.30    3.42   -0.42   0.000   0.143   0.000    0.00
  13.950   15.27    3.68   -0.64   0.000   0.143   0.000    0.00
  14.000   15.13    3.47   -0.05   0.000   0.143   0.000    0.00
  14.050   15.16    3.27    0.32   0.000   0.143   0.000    0.00
  14.100   15.36    3.26   -0.18   0.000   0.143   0.000    0.00
  14.150   15.07    3.45   -0.16   0.000   0.143   0.000    0.00
  14.200   15.39    4.04   -0.24   0.000   0.143   0.000    0.00
  14.250   15.15    5.24    0.10   0.000   0.143   0.000    0.00
  14.300   15.50    5.06   -0.22   0.000   0.143   0.000    0.00
  14.350   15.39    4.52   -0.31   0.000   0.143   0.000    0.00
  14.400   15.04    4.71   -0.17   0.000   0.143   0.000    0.00
  14.450   14.56    3.81   -0.25   0.000   0.143   0.000    0.00
  14.500   14.79    1.85   -0.08   0.000   0.143   0.000    0.00
  14.550   14.89    0.25   -0.05   0.000   0.143   0.000    0.00
  14.600   15.39   -0.24   -0.08   0.000   0.143   0.000    0.00
  14.650   15.09    2.20   -0.21   0.000   0.143   0.000    0.00
  14.700   14.89    2.85   -0.38   0.000   0.143   0.000    0.00
  14.750   14.96    3.38   -0.20   0.000   0.143   0.000    0.00
  14.800   14.96    3.93    0.22   0.000   0.143   0.000    0.00
  14.850   14.56    3.45    0.54   0.000   0.143   0.000    0.00
  14.900   14.51    3.49    0.60   0.000   0.143   0.000    0.00
  14.950   14.33    2.55    0.44   0.000   0.143   0.000    0.00
  15.000   14.36    2.28    0.38   0.000   0.143   0.000    0.00
  15.050   14.05    3.92    0.20   0.000   0.143   0.000    0.00
  15.100   14.21    3.20   -0.19   0.000   0.143   0.000    0.00
  15.150   14.18    4.22   -0.10   0.000   0.143   0.000    0.00
  15.200   14.27    3.35   -0.01   0.000   0.143   0.000    0.00
  15.250   14.29    3.35   -0.12   0.000   0.143   0.000    0.00
  15.300   14.17    3.94    0.23   0.000   0.143   0.000    0.00
  15.350   13.94    4.13    0.55   0.000   0.143   0.000    0.00
  15.400   13.89    4.02    0.79   0.000   0.143   0.000    0.00
  15.450   13.47    5.21    0.96   0.000   0.143   0.000    0.00
  15.500   13.24    5.34    1.27   0.000   0.143   0.000    0.00
  15.550   13.23    4.31    1.77   0.000   0.143   0.000    0.00
  15.600   13.44    5.11    1.77   0.000   0.143   0.000    0.00
  15.650   13.68    5.92    1.77   0.000   0.143   0.000    0.00
  15.700   13.65    5.26    1.79   0.000   0.143   0.000    0.00
  15.750   14.11    4.29    1.81   0.000   0.143   0.000    0.00
  15.800   14.03    4.30    1.73   0.000   0.143   0.000    0.00
  15.850   14.02    4.10    1.86   0.000   0.143   0.000    0.00
  15.900   13.96    3.80    1.93   0.000   0.143   0.000    0.00
  15.950   13.80    3.24    1.86   0.000   0.143   0.000    0.00
  16.000   13.58    3.01    2.10   0.000   0.143   0.000    0.00
  16.050   13.55    0.66    2.14   0.000   0.143   0.000    0.00
  16.100   13.68    3.29    2.15   0.000   0.143   0.000    0.00
  16.150   13.74    2.64    1.47   0.000   0.143   0.000    0.00
  16.200   13.85    2.59    1.76   0.000   0.143   0.000    0.00
  16.250   13.96    2.95    1.92   0.000   0.143   0.000    0.00
  16.300   13.91    1.89    1.66   0.000   0.143   0.000    0.00
  16.350   13.67    2.69    1.90   0.000   0.143   0.000    0.00
  16.400   13.60    5.10    1.91   0.000   0.143   0.000    0.00
  16.450   13.92    2.61    1.56   0.000   0.143   0.000    0.00
  16.500   14.06    2.61    1.50   0.000   0.143   0.000    0.00
  16.550   13.95    4.01    1.87   0.000   0.143   0.000    0.00
  16.600   14.09    4.33    1.65   0.000   0.143   0.000    0.00
  16.650   13.75    4.93    1.61   0.000   0.143   0.000    0.00
  16.700   13.97    5.62    1.59   0.000   0.143   0.000    0.00
  16.750   14.17    5.39    1.13   0.000   0.143   0.000    0.00
  16.800   14.34    5.03    1.13   0.000   0.143   0.000    0.00
  16.850   14.20    5.03    0.72   0.000   0.143   0.000    0.00
  16.900   14.18    4.08    0.48   0.000   0.143   0.000    0.00
  16.950   14.37    4.22    0.12   0.000   0.143   0.000    0.00
  17.000   14.30    4.64   -0.60   0.000   0.143   0.000    0.00
  17.050   14.43    6.52   -0.90   0.000   0.143   0.000    0.00
  17.100   14.59    7.67   -0.37   0.000   0.143   0.000    0.00
  17.150   14.49    7.55    0.41   0.000   0.143   0.000    0.00
  17.200   14.28    6.25    0.31   0.000   0.143   0.000    0.00
  17.250   14.24    7.38    0.13   0.000   0.143   0.000    0.00
  17.300   14.19    7.36    0.16   0.000   0.143   0.000    0.00
  17.350   14.40    8.19   -0.12   0.000   0.143   0.000    0.00
  17.400   14.35    8.55   -0.32   0.000   0.143   0.000    0.00
  17.450   14.30    9.48   -0.32   0.000   0.143   0.000    0.00
  17.500   14.55    9.66   -0.16   0.000   0.143   0.000    0.00
  17.550   14.40    9.60   -0.01   0.000   0.143   0.000    0.00
  17.600   14.36    8.97   -0.37   0.000   0.143   0.000    0.00
  17.650   14.11    9.55   -0.49   0.000   0.143   0.000    0.00
  17.700   14.19    8.27   -0.41   0.000   0.143   0.000    0.00
  17.750   14.01    8.03   -0.40   0.000   0.143   0.000    0.00
  17.800   13.65    8.55   -0.56   0.000   0.143   0.000    0.00
  17.850   13.94    8.40   -0.25   0.000   0.143   0.000    0.00
  17.900   13.91    7.98   -0.30   0.000   0.143   0.000    0.00
  17.950   13.46    8.63    0.11   0.000   0.143   0.000    0.00
  18.000   13.40    5.66    0.01   0.000   0.143   0.000    0.00
  18.050   13.28    3.94   -0.15   0.000   0.143   0.000    0.00
  18.100   13.38    3.39   -0.27   0.000   0.143   0.000    0.00
  18.150   13.44    3.54    0.29   0.000   0.143   0.000    0.00
  18.200   13.58    3.03    0.16   0.000   0.143   0.000    0.00
  18.250   13.48    2.70    0.05   0.000   0.143   0.000    0.00
  18.300   13.58    3.34   -0.08   0.000   0.143   0.000    0.00
  18.350   13.53    4.15    0.10   0.000   0.143   0.000    0.00
  18.400   13.56    5.05   -0.09   0.000   0.143   0.000    0.00
  18.450   13.42    3.14   -0.31   0.000   0.143   0.000    0.00
  18.500   13.53    2.80   -0.10   0.000   0.143   0.000    0.00
  18.550   13.72    2.24   -0.39   0.000   0.143   0.000    0.00
  18.600   14.07    1.35   -0.62   0.000   0.143   0.000    0.00
  18.650   14.29    1.74   -0.58   0.000   0.143   0.000    0.00
  18.700   14.07    1.57   -0.65   0.000   0.143   0.000    0.00
  18.750   14.00   -1.46    0.11   0.000   0.143   0.000    0.00
  18.800   13.72   -2.74   -0.28   0.000   0.143   0.000    0.00
  18.850   13.53    0.18   -0.30   0.000   0.143   0.000    0.00
  18.900   13.38   -1.05    0.01   0.000   0.143   0.000    0.00
  18.950   13.72    0.44    0.25   0.000   0.143   0.000    0.00
  19.000   14.01    0.68    0.13   0.000   0.143   0.000    0.00
  19.050   13.59    1.12    0.14   0.000   0.143   0.000    0.00
  19.100   13.46    1.50    0.21   0.000   0.143   0.000    0.00
  19.150   13.82    2.00    0.14   0.000   0.143   0.000    0.00
  19.200   14.07    1.77    0.20   0.000   0.143   0.000    0.00
  19.250   14.61    2.29    0.27   0.000   0.143   0.000    0.00
  19.300   14.19    1.89    0.06   0.000   0.143   0.000    0.00
  19.350   13.93    1.42    0.28   0.000   0.143   0.000    0.00
  19.400   14.03    0.79    0.55   0.000   0.143   0.000    0.00
  19.450   14.04    0.36    0.22   0.000   0.143   0.000    0.00
  19.500   13.96    2.04    0.10   0.000   0.143   0.000    0.00
  19.550   14.01    1.90   -0.21   0.000   0.143   0.000    0.00
  19.600   13.79    3.19    0.12   0.000   0.143   0.000    0.00
  19.650   13.94    3.01    0.01   0.000   0.143   0.000    0.00
  19.700   13.97    2.67   -0.29   0.000   0.143   0.000    0.00
  19.750   14.15    2.36   -0.27   0.000   0.143   0.000    0.00
  19.800   14.04    3.24   -0.06   0.000   0.143   0.000    0.00
  19.850   13.65    4.46    0.06   0.000   0.143   0.000    0.00
  19.900   13.66    4.99   -0.06   0.000   0.143   0.000    0.00
  19.950   14.03    5.24   -0.23   0.000   0.143   0.000    0.00
  20.000   13.66    3.74   -0.38   0.000   0.143   0.000    0.00
  20.050   13.81    3.37   -0.51   0.000   0.143   0.000    0.00
  20.100   13.95    2.54   -0.37   0.000   0.143   0.000    0.00
  20.150   13.97    3.05   -0.45   0.000   0.143   0.000    0.00
  20.200   13.85    2.85   -0.41   0.000   0.143   0.000    0.00
  20.250   14.04    3.47   -0.37   0.000   0.143   0.000    0.00
  20.300   13.93    2.27   -0.11   0.000   0.143   0.000    0.00
  20.350   14.25    2.36    0.00   0.000   0.143   0.000    0.00
  20.400   14.34    2.92   -0.03   0.000   0.143   0.000    0.00
  20.450   14.24    2.90   -0.21   0.000   0.143   0.000    0.00
  20.500   14.26    2.16   -0.07   0.000   0.143   0.000    0.00
  20.550   14.25    2.55   -0.24   0.000   0.143   0.000    0.00
  20.600   14.29    1.89    0.08   0.000   0.143   0.000    0.00
  20.650   14.23    2.34    0.16   0.000   0.143   0.000    0.00
  20.700   14.02    3.22    0.13   0.000   0.143   0.000    0.00
  20.750   14.27    3.93    0.45   0.000   0.143   0.000    0.00
  20.800   14.63    3.27    0.77   0.000   0.143   0.000    0.00
  20.850   15.24    2.52    0.61   0.000   0.143   0.000    0.00
  20.900   15.09    2.98    0.67   0.000   0.143   0.000    0.00
  20.950   14.43    4.03    0.81   0.000   0.143   0.000    0.00
  21.000   14.35    5.27    0.82   0.000   0.143   0.000    0.00
  21.050   14.40    3.73    0.71   0.000   0.143   0.000    0.00
  21.100   14.28    2.94    0.61   0.000   0.143   0.000    0.00
  21.150   14.47    3.54    0.63   0.000   0.143   0.000    0.00
  21.200   14.52    3.55    0.83   0.000   0.143   0.000    0.00
  21.250   14.65    4.90    0.94   0.000   0.143   0.000    0.00
  21.300   14.44    5.92    1.02   0.000   0.143   0.000    0.00
  21.350   14.50    4.21    1.05   0.000   0.143   0.000    0.00
  21.400   14.36    4.90    1.10   0.000   0.143   0.000    0.00
  21.450   14.36    5.45    0.76   0.000   0.143   0.000    0.00
  21.500   14.39    5.83    0.59   0.000   0.143   0.000    0.00
  21.550   14.63    5.42    1.26   0.000   0.143   0.000    0.00
  21.600   14.91    5.12    1.30   0.000   0.143   0.000    0.00
  21.650   14.60    5.55    1.08   0.000   0.143   0.000    0.00
  21.700   14.65    5.41    1.00   0.000   0.143   0.000    0.00
  21.750   14.51    5.04    1.33   0.000   0.143   0.000    0.00
  21.800   14.45    5.69    1.19   0.000   0.143   0.000    0.00
  21.850   14.62    5.70    1.36   0.000   0.143   0.000    0.00
  21.900   14.47    6.89    1.31   0.000   0.143   0.000    0.00
  21.950   14.28    5.88    1.49   0.000   0.143   0.000    0.00
  22.000   14.51    5.72    1.08   0.000   0.143   0.000    0.00
  22.050   14.62    5.81    1.17   0.000   0.143   0.000    0.00
  22.100   14.33    6.54    1.17   0.000   0.143   0.000    0.00
  22.150   14.17    7.38    0.50   0.000   0.143   0.000    0.00
  22.200   14.17    8.17    0.33   0.000   0.143   0.000    0.00
  22.250   14.02    8.80    0.54   0.000   0.143   0.000    0.00
  22.300   13.63    8.12    0.25   0.000   0.143   0.000    0.00
  22.350   13.29    8.89    0.01   0.000   0.143   0.000    0.00
  22.400   13.32    7.01    0.07   0.000   0.143   0.000    0.00
  22.450   13.22    6.81   -0.21   0.000   0.143   0.000    0.00
  22.500   13.18    6.24   -0.01   0.000   0.143   0.000    0.00
  22.550   13.30    5.40    0.14   0.000   0.143   0.000    0.00
  22.600   13.28    5.10    0.08   0.000   0.143   0.000    0.00
  22.650   13.24    4.02   -0.30   0.000   0.143   0.000    0.00
  22.700   13.24    2.02    0.09   0.000   0.143   0.000    0.00
  22.750   13.04    1.67   -0.23   0.000   0.143   0.000    0.00