! This hub-height wind-speed file was generated by TurbSim (v1.06.00, 21-Sep-2012) on 07-Dec-2015 at 15:32:42.
!
! The requested statistics for this data were:
!    Mean Total Wind Speed =   24.000 m/s
!
!   Time  HorSpd  WndDir  VerSpd  HorShr  VerShr  LnVShr  GstSpd
!  (sec)   (m/s)   (deg)   (m/s)     (-)     (-)     (-)   (m/s)
   0.000   32.34    1.89   -3.14   0.000   0.143   0.000    0.00
   0.050   31.92    0.94   -2.66   0.000   0.143   0.000    0.00
   0.100   31.36    0.62   -2.56   0.000   0.143   0.000    0.00
   0.150   32.66    2.50   -2.10   0.000   0.143   0.000    0.00
   0.200   32.54    2.44   -1.88   0.000   0.143   0.000    0.00
   0.250   32.25    3.30   -1.66   0.000   0.143   0.000    0.00
   0.300   31.67    3.00   -1.11   0.000   0.143   0.000    0.00
   0.350   31.64    2.53   -1.39   0.000   0.143   0.000    0.00
   0.400   31.80    1.75   -0.79   0.000   0.143   0.000    0.00
   0.450   32.18    2.60   -0.76   0.000   0.143   0.000    0.00
   0.500   31.57    2.75   -1.13   0.000   0.143   0.000    0.00
   0.550   30.96    1.34   -1.37   0.000   0.143   0.000    0.00
   0.600   31.15    0.39   -1.25   0.000   0.143   0.000    0.00
   0.650   31.36   -0.74   -1.37   0.000   0.143   0.000    0.00
   0.700   31.33    0.04   -1.79   0.000   0.143   0.000    0.00
   0.750   31.41    0.70   -1.19   0.000   0.143   0.000    0.00
   0.800   31.58    0.75   -0.25   0.000   0.143   0.000    0.00
   0.850   31.25    0.80   -1.49   0.000   0.143   0.000    0.00
   0.900   31.70    0.67   -2.86   0.000   0.143   0.000    0.00
   0.950   31.91    0.97   -3.37   0.000   0.143   0.000    0.00
   1.000   30.89    0.15   -3.83   0.000   0.143   0.000    0.00
   1.050   30.15    1.84   -3.76   0.000   0.143   0.000    0.00
   1.100   30.04    1.42   -3.51   0.000   0.143   0.000    0.00
   1.150   29.85    3.16   -2.90   0.000   0.143   0.000    0.00
   1.200   28.80    3.66   -3.27   0.000   0.143   0.000    0.00
   1.250   29.07    3.34   -2.95   0.000   0.143   0.000    0.00
   1.300   29.26    4.62   -3.11   0.000   0.143   0.000    0.00
   1.350   28.99    4.28   -2.62   0.000   0.143   0.000    0.00
   1.400   29.70    4.77   -3.02   0.000   0.143   0.000    0.00
   1.450   30.27    4.34   -3.81   0.000   0.143   0.000    0.00
   1.500   30.59    4.39   -3.63   0.000   0.143   0.000    0.00
   1.550   30.81    3.76   -3.01   0.000   0.143   0.000    0.00
   1.600   30.60    3.05   -3.69   0.000   0.143   0.000    0.00
   1.650   30.98    3.81   -3.57   0.000   0.143   0.000    0.00
   1.700   30.94    4.64   -3.58   0.000   0.143   0.000    0.00
   1.750   30.64    4.44   -2.04   0.000   0.143   0.000    0.00
   1.800   30.66    3.57   -2.07   0.000   0.143   0.000    0.00
   1.850   30.31    3.43   -2.81   0.000   0.143   0.000    0.00
   1.900   30.84    1.79   -2.48   0.000   0.143   0.000    0.00
   1.950   30.49    2.17   -2.94   0.000   0.143   0.000    0.00
   2.000   30.03    3.87   -3.25   0.000   0.143   0.000    0.00
   2.050   29.88    4.20   -2.01   0.000   0.143   0.000    0.00
   2.100   29.66    2.64   -2.50   0.000   0.143   0.000    0.00
   2.150   28.88    2.05   -2.36   0.000   0.143   0.000    0.00
   2.200   28.12    3.75   -2.73   0.000   0.143   0.000    0.00
   2.250   29.15    4.34   -1.88   0.000   0.143   0.000    0.00
   2.300   29.93    2.92   -1.97   0.000   0.143   0.000    0.00
   2.350   30.05    4.23   -2.25   0.000   0.143   0.000    0.00
   2.400   29.84    4.07   -2.95   0.000   0.143   0.000    0.00
   2.450   30.17    2.82   -3.69   0.000   0.143   0.000    0.00
   2.500   30.92    2.98   -4.09   0.000   0.143   0.000    0.00
   2.550   30.31    2.74   -4.03   0.000   0.143   0.000    0.00
   2.600   29.58    2.64   -4.91   0.000   0.143   0.000    0.00
   2.650   29.03    2.80   -5.15   0.000   0.143   0.000    0.00
   2.700   29.05    4.09   -4.26   0.000   0.143   0.000    0.00
   2.750   29.48    6.44   -4.22   0.000   0.143   0.000    0.00
   2.800   30.51    7.01   -4.22   0.000   0.143   0.000    0.00
   2.850   29.76    6.01   -3.50   0.000   0.143   0.000    0.00
   2.900   30.19    5.14   -3.48   0.000   0.143   0.000    0.00
   2.950   29.87    3.68   -2.98   0.000   0.143   0.000    0.00
   3.000   29.63    4.43   -3.09   0.000   0.143   0.000    0.00
   3.050   29.66    4.22   -3.10   0.000   0.143   0.000    0.00
   3.100   28.86    3.12   -2.54   0.000   0.143   0.000    0.00
   3.150   29.11    2.71   -1.93   0.000   0.143   0.000    0.00
   3.200   28.73    3.03   -1.37   0.000   0.143   0.000    0.00
   3.250   28.63    3.59   -1.00   0.000   0.143   0.000    0.00
   3.300   29.07    4.13   -1.82   0.000   0.143   0.000    0.00
   3.350   28.24    3.25   -1.70   0.000   0.143   0.000    0.00
   3.400   28.08    1.59   -1.92   0.000   0.143   0.000    0.00
   3.450   28.89    1.47   -1.71   0.000   0.143   0.000    0.00
   3.500   28.39    1.12   -1.77   0.000   0.143   0.000    0.00
   3.550   27.94   -2.51   -1.87   0.000   0.143   0.000    0.00
   3.600   27.90   -2.33   -2.01   0.000   0.143   0.000    0.00
   3.650   28.95   -0.66   -1.89   0.000   0.143   0.000    0.00
   3.700   28.01    1.26   -1.93   0.000   0.143   0.000    0.00
   3.750   28.36    2.52   -2.15   0.000   0.143   0.000    0.00
   3.800   28.89    4.28   -2.54   0.000   0.143   0.000    0.00
   3.850   28.18    5.19   -2.45   0.000   0.143   0.000    0.00
   3.900   28.06    3.74   -2.44   0.000   0.143   0.000    0.00
   3.950   27.74    4.58   -2.84   0.000   0.143   0.000    0.00
   4.000   26.33    4.95   -2.81   0.000   0.143   0.000    0.00
   4.050   26.42    2.70   -3.46   0.000   0.143   0.000    0.00
   4.100   26.75    1.12   -4.03   0.000   0.143   0.000    0.00
   4.150   27.72    2.28   -4.37   0.000   0.143   0.000    0.00
   4.200   27.77    1.87   -4.67   0.000   0.143   0.000    0.00
   4.250   27.24    3.23   -4.88   0.000   0.143   0.000    0.00
   4.300   27.34    2.22   -4.10   0.000   0.143   0.000    0.00
   4.350   26.95    3.40   -3.52   0.000   0.143   0.000    0.00
   4.400   27.28    4.30   -2.93   0.000   0.143   0.000    0.00
   4.450   28.03    6.41   -2.65   0.000   0.143   0.000    0.00
   4.500   28.20    6.52   -2.52   0.000   0.143   0.000    0.00
   4.550   27.53    5.31   -2.19   0.000   0.143   0.000    0.00
   4.600   26.96    7.75   -2.19   0.000   0.143   0.000    0.00
   4.650   26.40    8.22   -1.48   0.000   0.143   0.000    0.00
   4.700   26.94    9.24   -1.37   0.000   0.143   0.000    0.00
   4.750   26.40    6.96   -0.92   0.000   0.143   0.000    0.00
   4.800   26.70    6.91   -1.35   0.000   0.143   0.000    0.00
   4.850   26.82    6.41   -0.93   0.000   0.143   0.000    0.00
   4.900   25.60    3.68   -0.25   0.000   0.143   0.000    0.00
   4.950   25.24    5.38   -0.46   0.000   0.143   0.000    0.00
   5.000   25.43    7.23   -0.26   0.000   0.143   0.000    0.00
   5.050   25.15    7.16   -1.19   0.000   0.143   0.000    0.00
   5.100   25.17    5.87   -1.09   0.000   0.143   0.000    0.00
   5.150   24.55    4.93   -1.46   0.000   0.143   0.000    0.00
   5.200   24.86    6.70   -1.51   0.000   0.143   0.000    0.00
   5.250   24.63    5.81   -1.54   0.000   0.143   0.000    0.00
   5.300   25.47    4.76   -1.81   0.000   0.143   0.000    0.00
   5.350   25.89    4.56   -1.58   0.000   0.143   0.000    0.00
   5.400   26.29    3.36   -1.76   0.000   0.143   0.000    0.00
   5.450   26.49    3.43   -2.27   0.000   0.143   0.000    0.00
   5.500   26.52    1.05   -2.30   0.000   0.143   0.000    0.00
   5.550   26.87    1.17   -3.06   0.000   0.143   0.000    0.00
   5.600   27.90    0.49   -3.48   0.000   0.143   0.000    0.00
   5.650   27.66   -0.06   -3.94   0.000   0.143   0.000    0.00
   5.700   28.12    1.90   -3.20   0.000   0.143   0.000    0.00
   5.750   28.02    2.88   -2.42   0.000   0.143   0.000    0.00
   5.800   27.37    3.96   -3.23   0.000   0.143   0.000    0.00
   5.850   27.29    4.01   -3.15   0.000   0.143   0.000    0.00
   5.900   27.85    3.26   -3.58   0.000   0.143   0.000    0.00
   5.950   27.98    2.61   -2.39   0.000   0.143   0.000    0.00
   6.000   28.64    3.44   -2.41   0.000   0.143   0.000    0.00
   6.050   28.72    3.33   -2.47   0.000   0.143   0.000    0.00
   6.100   28.28    3.58   -2.33   0.000   0.143   0.000    0.00
   6.150   28.44    4.94   -2.53   0.000   0.143   0.000    0.00
   6.200   28.33    4.72   -2.80   0.000   0.143   0.000    0.00
   6.250   28.56    1.08   -2.67   0.000   0.143   0.000    0.00
   6.300   28.63    0.85   -2.75   0.000   0.143   0.000    0.00
   6.350   28.69   -0.76   -2.72   0.000   0.143   0.000    0.00
   6.400   28.54    0.70   -2.50   0.000   0.143   0.000    0.00
   6.450   28.74    0.89   -2.15   0.000   0.143   0.000    0.00
   6.500   28.81    0.13   -2.30   0.000   0.143   0.000    0.00
   6.550   28.58    0.76   -2.67   0.000   0.143   0.000    0.00
   6.600   28.68    1.53   -2.85   0.000   0.143   0.000    0.00
   6.650   29.04   -0.85   -2.51   0.000   0.143   0.000    0.00
   6.700   29.60   -2.02   -2.22   0.000   0.143   0.000    0.00
   6.750   30.30   -2.73   -1.37   0.000   0.143   0.000    0.00
   6.800   29.55   -3.41   -0.88   0.000   0.143   0.000    0.00
   6.850   29.82   -4.30   -0.64   0.000   0.143   0.000    0.00
   6.900   28.79   -2.95   -1.17   0.000   0.143   0.000    0.00
   6.950   28.50   -3.71   -0.87   0.000   0.143   0.000    0.00
   7.000   28.53   -1.78   -0.72   0.000   0.143   0.000    0.00
   7.050   28.66    0.24   -0.06   0.000   0.143   0.000    0.00
   7.100   28.78   -1.69   -1.70   0.000   0.143   0.000    0.00
   7.150   28.28   -1.96   -1.39   0.000   0.143   0.000    0.00
   7.200   28.16   -1.40   -1.13   0.000   0.143   0.000    0.00
   7.250   28.30    0.82   -1.88   0.000   0.143   0.000    0.00
   7.300   28.22    2.63   -1.97   0.000   0.143   0.000    0.00
   7.350   27.54    1.72   -2.70   0.000   0.143   0.000    0.00
   7.400   28.42    3.60   -2.78   0.000   0.143   0.000    0.00
   7.450   28.82    2.64   -3.19   0.000   0.143   0.000    0.00
   7.500   29.06    0.49   -1.29   0.000   0.143   0.000    0.00
   7.550   29.92    0.70   -1.26   0.000   0.143   0.000    0.00
   7.600   29.79    1.68   -1.35   0.000   0.143   0.000    0.00
   7.650   29.67    0.83   -1.59   0.000   0.143   0.000    0.00
   7.700   29.15    2.12   -0.58   0.000   0.143   0.000    0.00
   7.750   29.53    2.47   -0.72   0.000   0.143   0.000    0.00
   7.800   29.12    1.17   -1.13   0.000   0.143   0.000    0.00
   7.850   29.15    1.04   -0.85   0.000   0.143   0.000    0.00
   7.900   29.25    0.46   -1.64   0.000   0.143   0.000    0.00
   7.950   28.33    1.48   -1.30   0.000   0.143   0.000    0.00
   8.000   28.19    3.17   -2.15   0.000   0.143   0.000    0.00
   8.050   28.62    4.11   -0.93   0.000   0.143   0.000    0.00
   8.100   28.76    3.28   -0.27   0.000   0.143   0.000    0.00
   8.150   28.27    2.52   -1.49   0.000   0.143   0.000    0.00
   8.200   27.63    3.72   -1.71   0.000   0.143   0.000    0.00
   8.250   27.67    5.10   -1.98   0.000   0.143   0.000    0.00
   8.300   27.82    5.62   -2.98   0.000   0.143   0.000    0.00
   8.350   27.78    4.90   -3.12   0.000   0.143   0.000    0.00
   8.400   27.75    3.53   -3.40   0.000   0.143   0.000    0.00
   8.450   27.74    3.67   -2.54   0.000   0.143   0.000    0.00
   8.500   28.78    5.25   -1.75   0.000   0.143   0.000    0.00
   8.550   29.15    5.29   -2.45   0.000   0.143   0.000    0.00
   8.600   28.73    4.53   -2.50   0.000   0.143   0.000    0.00
   8.650   28.91    4.76   -2.83   0.000   0.143   0.000    0.00
   8.700   28.41    4.33   -2.61   0.000   0.143   0.000    0.00
   8.750   29.26    4.67   -1.96   0.000   0.143   0.000    0.00
   8.800   28.59    5.07   -1.95   0.000   0.143   0.000    0.00
   8.850   27.94    5.48   -1.59   0.000   0.143   0.000    0.00
   8.900   27.60    3.19   -1.29   0.000   0.143   0.000    0.00
   8.950   27.22    2.65   -1.51   0.000   0.143   0.000    0.00
   9.000   27.38    0.66   -2.01   0.000   0.143   0.000    0.00
   9.050   28.22    0.18   -3.03   0.000   0.143   0.000    0.00
   9.100   28.41    1.55   -2.60   0.000   0.143   0.000    0.00
   9.150   28.30    1.41   -2.24   0.000   0.143   0.000    0.00
   9.200   28.56    0.28   -1.31   0.000   0.143   0.000    0.00
   9.250   28.93    1.57   -1.37   0.000   0.143   0.000    0.00
   9.300   28.76    1.35   -1.98   0.000   0.143   0.000    0.00
   9.350   28.31    1.02   -2.21   0.000   0.143   0.000    0.00
   9.400   28.36    2.14   -0.69   0.000   0.143   0.000    0.00
   9.450   28.48    2.50   -0.62   0.000   0.143   0.000    0.00
   9.500   28.86    4.16   -0.94   0.000   0.143   0.000    0.00
   9.550   27.93    3.21    0.14   0.000   0.143   0.000    0.00
   9.600   28.17    0.94   -0.75   0.000   0.143   0.000    0.00
   9.650   28.10    3.08   -1.97   0.000   0.143   0.000    0.00
   9.700   28.11    3.15   -1.59   0.000   0.143   0.000    0.00
   9.750   28.09    1.96   -2.21   0.000   0.143   0.000    0.00
   9.800   27.54    1.81   -1.78   0.000   0.143   0.000    0.00
   9.850   27.92    1.69   -1.80   0.000   0.143   0.000    0.00
   9.900   27.99    1.46   -3.26   0.000   0.143   0.000    0.00
   9.950   27.84    0.10   -3.30   0.000   0.143   0.000    0.00
  10.000   28.09   -0.65   -3.27   0.000   0.143   0.000    0.00
  10.050   28.41    0.13   -3.12   0.000   0.143   0.000    0.00
  10.100   28.89    0.94   -3.94   0.000   0.143   0.000    0.00
  10.150   29.11    1.59   -3.62   0.000   0.143   0.000    0.00
  10.200   28.20    1.82   -2.31   0.000   0.143   0.000    0.00
  10.250   28.33    1.93   -3.28   0.000   0.143   0.000    0.00
  10.300   28.58    1.99   -3.86   0.000   0.143   0.000    0.00
  10.350   27.86    4.11   -3.32   0.000   0.143   0.000    0.00
  10.400   26.85    5.03   -3.70   0.000   0.143   0.000    0.00
  10.450   26.95    5.53   -3.29   0.000   0.143   0.000    0.00
  10.500   27.48    4.91   -3.46   0.000   0.143   0.000    0.00
  10.550   28.14    4.50   -2.81   0.000   0.143   0.000    0.00
  10.600   28.29    3.79   -2.78   0.000   0.143   0.000    0.00
  10.650   28.74    5.38   -2.96   0.000   0.143   0.000    0.00
  10.700   29.05    6.38   -2.37   0.000   0.143   0.000    0.00
  10.750   28.90    6.52   -2.03   0.000   0.143   0.000    0.00
  10.800   28.21    5.38   -1.57   0.000   0.143   0.000    0.00
  10.850   27.78    5.14   -1.43   0.000   0.143   0.000    0.00
  10.900   27.82    4.66   -1.33   0.000   0.143   0.000    0.00
  10.950   27.67    3.76   -0.92   0.000   0.143   0.000    0.00
  11.000   27.36    3.70   -1.29   0.000   0.143   0.000    0.00
  11.050   27.38    2.56   -0.64   0.000   0.143   0.000    0.00
  11.100   26.58    3.46   -0.78   0.000   0.143   0.000    0.00
  11.150   27.21    2.56   -1.32   0.000   0.143   0.000    0.00
  11.200   27.29    1.34   -1.62   0.000   0.143   0.000    0.00
  11.250   26.91    0.70   -1.28   0.000   0.143   0.000    0.00
  11.300   26.26   -0.41   -0.88   0.000   0.143   0.000    0.00
  11.350   26.76   -0.76   -1.18   0.000   0.143   0.000    0.00
  11.400   26.11   -3.36   -1.27   0.000   0.143   0.000    0.00
  11.450   26.32   -5.33   -1.56   0.000   0.143   0.000    0.00
  11.500   25.93   -4.27   -1.34   0.000   0.143   0.000    0.00
  11.550   26.81   -2.21   -2.13   0.000   0.143   0.000    0.00
  11.600   27.67   -3.39   -1.46   0.000   0.143   0.000    0.00
  11.650   27.57   -1.53   -1.39   0.000   0.143   0.000    0.00
  11.700   26.66   -1.67   -0.97   0.000   0.143   0.000    0.00
  11.750   26.38    0.95   -0.18   0.000   0.143   0.000    0.00
  11.800   25.87    2.71   -0.41   0.000   0.143   0.000    0.00
  11.850   25.75    0.48    0.42   0.000   0.143   0.000    0.00
  11.900   27.10   -1.86    0.24   0.000   0.143   0.000    0.00
  11.950   27.58   -2.94    0.20   0.000   0.143   0.000    0.00
  12.000   27.42   -1.19   -0.47   0.000   0.143   0.000    0.00
  12.050   26.54   -0.34   -0.04   0.000   0.143   0.000    0.00
  12.100   26.69   -0.76   -0.51   0.000   0.143   0.000    0.00
  12.150   27.28   -1.03   -1.49   0.000   0.143   0.000    0.00
  12.200   27.62   -0.08   -1.31   0.000   0.143   0.000    0.00
  12.250   27.52   -1.15   -2.42   0.000   0.143   0.000    0.00
  12.300   27.73   -2.00   -2.97   0.000   0.143   0.000    0.00
  12.350   27.58   -2.32   -3.08   0.000   0.143   0.000    0.00
  12.400   27.13   -1.77   -2.60   0.000   0.143   0.000    0.00
  12.450   26.99   -2.07   -2.32   0.000   0.143   0.000    0.00
  12.500   27.10   -1.38   -1.86   0.000   0.143   0.000    0.00
  12.550   27.29    0.18   -2.26   0.000   0.143   0.000    0.00
  12.600   26.74    1.26   -1.51   0.000   0.143   0.000    0.00
  12.650   26.51   -1.43   -2.96   0.000   0.143   0.000    0.00
  12.700   26.15   -1.16   -3.47   0.000   0.143   0.000    0.00
  12.750   25.54    0.96   -3.84   0.000   0.143   0.000    0.00
  12.800   25.61   -0.23   -3.35   0.000   0.143   0.000    0.00
  12.850   26.04    0.09   -3.84   0.000   0.143   0.000    0.00
  12.900   26.25    0.08   -3.99   0.000   0.143   0.000    0.00
  12.950   26.84   -1.88   -3.83   0.000   0.143   0.000    0.00
  13.000   27.60   -3.14   -3.53   0.000   0.143   0.000    0.00
  13.050   28.44   -1.10   -3.53   0.000   0.143   0.000    0.00
  13.100   28.68   -1.07   -3.23   0.000   0.143   0.000    0.00
  13.150   28.30   -3.10   -3.36   0.000   0.143   0.000    0.00
  13.200   27.60   -4.27   -2.93   0.000   0.143   0.000    0.00
  13.250   27.65   -5.29   -2.65   0.000   0.143   0.000    0.00
  13.300   27.93   -3.57   -2.10   0.000   0.143   0.000    0.00
  13.350   27.31   -5.52   -1.45   0.000   0.143   0.000    0.00
  13.400   27.16   -4.16   -1.13   0.000   0.143   0.000    0.00
  13.450   28.35   -1.99   -1.63   0.000   0.143   0.000    0.00
  13.500   28.08   -0.80   -2.19   0.000   0.143   0.000    0.00
  13.550   27.28   -1.83   -1.53   0.000   0.143   0.000    0.00
  13.600   26.90   -0.82   -0.90   0.000   0.143   0.000    0.00
  13.650   27.38   -0.82   -1.04   0.000   0.143   0.000    0.00
  13.700   27.82    1.47   -0.15   0.000   0.143   0.000    0.00
  13.750   27.53    1.12   -0.26   0.000   0.143   0.000    0.00
  13.800   27.63    2.24    0.30   0.000   0.143   0.000    0.00
  13.850   27.50    3.49   -0.07   0.000   0.143   0.000    0.00
  13.900   27.70    2.97   -0.71   0.000   0.143   0.000    0.00
  13.950   27.64    3.28   -1.22   0.000   0.143   0.000    0.00
  14.000   27.32    3.01    0.10   0.000   0.143   0.000    0.00
  14.050   27.39    2.74    0.91   0.000   0.143   0.000    0.00
  14.100   27.84    2.73   -0.23   0.000   0.143   0.000    0.00
  14.150   27.19    2.95   -0.19   0.000   0.143   0.000    0.00
  14.200   27.93    3.69   -0.40   0.000   0.143   0.000    0.00
  14.250   27.38    5.18    0.36   0.000   0.143   0.000    0.00
  14.300   28.17    4.95   -0.40   0.000   0.143   0.000    0.00
  14.350   27.92    4.27   -0.62   0.000   0.143   0.000    0.00
  14.400   27.13    4.49   -0.30   0.000   0.143   0.000    0.00
  14.450   26.05    3.34   -0.48   0.000   0.143   0.000    0.00
  14.500   26.58    0.88   -0.13   0.000   0.143   0.000    0.00
  14.550   26.84   -1.13   -0.07   0.000   0.143   0.000    0.00
  14.600   27.99   -1.68   -0.18   0.000   0.143   0.000    0.00
  14.650   27.26    1.32   -0.49   0.000   0.143   0.000    0.00
  14.700   26.83    2.11   -0.88   0.000   0.143   0.000    0.00
  14.750   26.98    2.78   -0.49   0.000   0.143   0.000    0.00
  14.800   26.97    3.47    0.44   0.000   0.143   0.000    0.00
  14.850   26.07    2.83    1.16   0.000   0.143   0.000    0.00
  14.900   25.96    2.88    1.29   0.000   0.143   0.000    0.00
  14.950   25.56    1.66    0.92   0.000   0.143   0.000    0.00
  15.000   25.63    1.32    0.77   0.000   0.143   0.000    0.00
  15.050   24.93    3.37    0.35   0.000   0.143   0.000    0.00
  15.100   25.31    2.47   -0.55   0.000   0.143   0.000    0.00
  15.150   25.22    3.75   -0.37   0.000   0.143   0.000    0.00
  15.200   25.44    2.64   -0.19   0.000   0.143   0.000    0.00
  15.250   25.49    2.64   -0.44   0.000   0.143   0.000    0.00
  15.300   25.20    3.37    0.33   0.000   0.143   0.000    0.00
  15.350   24.70    3.60    1.04   0.000   0.143   0.000    0.00
  15.400   24.57    3.45    1.57   0.000   0.143   0.000    0.00
  15.450   23.63    4.96    1.96   0.000   0.143   0.000    0.00
  15.500   23.10    5.11    2.64   0.000   0.143   0.000    0.00
  15.550   23.10    3.76    3.74   0.000   0.143   0.000    0.00
  15.600   23.57    4.81    3.72   0.000   0.143   0.000    0.00
  15.650   24.12    5.84    3.71   0.000   0.143   0.000    0.00
  15.700   24.05    4.99    3.73   0.000   0.143   0.000    0.00
  15.750   25.10    3.77    3.76   0.000   0.143   0.000    0.00
  15.800   24.91    3.76    3.55   0.000   0.143   0.000    0.00
  15.850   24.90    3.51    3.85   0.000   0.143   0.000    0.00
  15.900   24.77    3.11    3.99   0.000   0.143   0.000    0.00
  15.950   24.42    2.39    3.84   0.000   0.143   0.000    0.00
  16.000   23.92    2.07    4.38   0.000   0.143   0.000    0.00
  16.050   23.89   -0.97    4.47   0.000   0.143   0.000    0.00
  16.100   24.14    2.41    4.49   0.000   0.143   0.000    0.00
  16.150   24.30    1.59    2.94   0.000   0.143   0.000    0.00
  16.200   24.54    1.53    3.60   0.000   0.143   0.000    0.00
  16.250   24.79    1.99    3.95   0.000   0.143   0.000    0.00
  16.300   24.69    0.63    3.36   0.000   0.143   0.000    0.00
  16.350   24.14    1.62    3.92   0.000   0.143   0.000    0.00
  16.400   23.96    4.70    3.94   0.000   0.143   0.000    0.00
  16.450   24.70    1.52    3.16   0.000   0.143   0.000    0.00
  16.500   25.03    1.54    3.00   0.000   0.143   0.000    0.00
  16.550   24.76    3.30    3.86   0.000   0.143   0.000    0.00
  16.600   25.09    3.71    3.38   0.000   0.143   0.000    0.00
  16.650   24.30    4.45    3.31   0.000   0.143   0.000    0.00
  16.700   24.81    5.34    3.25   0.000   0.143   0.000    0.00
  16.750   25.27    5.04    2.22   0.000   0.143   0.000    0.00
  16.800   25.65    4.58    2.24   0.000   0.143   0.000    0.00
  16.850   25.33    4.57    1.32   0.000   0.143   0.000    0.00
  16.900   25.30    3.35    0.79   0.000   0.143   0.000    0.00
  16.950   25.72    3.54   -0.02   0.000   0.143   0.000    0.00
  17.000   25.57    4.05   -1.64   0.000   0.143   0.000    0.00
  17.050   25.87    6.43   -2.30   0.000   0.143   0.000    0.00
  17.100   26.24    7.88   -1.11   0.000   0.143   0.000    0.00
  17.150   25.99    7.72    0.68   0.000   0.143   0.000    0.00
  17.200   25.52    6.07    0.48   0.000   0.143   0.000    0.00
  17.250   25.43    7.50    0.08   0.000   0.143   0.000    0.00
  17.300   25.33    7.47    0.15   0.000   0.143   0.000    0.00
  17.350   25.81    8.52   -0.48   0.000   0.143   0.000    0.00
  17.400   25.69    8.97   -0.91   0.000   0.143   0.000    0.00
  17.450   25.59   10.14   -0.89   0.000   0.143   0.000    0.00
  17.500   26.15   10.35   -0.55   0.000   0.143   0.000    0.00
  17.550   25.82   10.28   -0.19   0.000   0.143   0.000    0.00
  17.600   25.74    9.49   -0.99   0.000   0.143   0.000    0.00
  17.650   25.17   10.25   -1.25   0.000   0.143   0.000    0.00
  17.700   25.34    8.62   -1.08   0.000   0.143   0.000    0.00
  17.750   24.95    8.32   -1.03   0.000   0.143   0.000    0.00
  17.800   24.13    9.01   -1.39   0.000   0.143   0.000    0.00
  17.850   24.78    8.80   -0.68   0.000   0.143   0.000    0.00
  17.900   24.71    8.27   -0.80   0.000   0.143   0.000    0.00
  17.950   23.71    9.13    0.15   0.000   0.143   0.000    0.00
  18.000   23.56    5.31   -0.08   0.000   0.143   0.000    0.00
  18.050   23.31    3.09   -0.43   0.000   0.143   0.000    0.00
  18.100   23.54    2.41   -0.70   0.000   0.143   0.000    0.00
  18.150   23.67    2.61    0.56   0.000   0.143   0.000    0.00
  18.200   23.99    1.97    0.27   0.000   0.143   0.000    0.00
  18.250   23.78    1.55    0.03   0.000   0.143   0.000    0.00
  18.300   24.01    2.38   -0.27   0.000   0.143   0.000    0.00
  18.350   23.88    3.42    0.13   0.000   0.143   0.000    0.00
  18.400   23.94    4.59   -0.30   0.000   0.143   0.000    0.00
  18.450   23.65    2.14   -0.79   0.000   0.143   0.000    0.00
  18.500   23.89    1.71   -0.31   0.000   0.143   0.000    0.00
  18.550   24.34    1.03   -0.97   0.000   0.143   0.000    0.00
  18.600   25.14   -0.06   -1.51   0.000   0.143   0.000    0.00
  18.650   25.63    0.47   -1.42   0.000   0.143   0.000    0.00
  18.700   25.15    0.23   -1.58   0.000   0.143   0.000    0.00
  18.750   25.03   -3.62    0.14   0.000   0.143   0.000    0.00
  18.800   24.44   -5.29   -0.74   0.000   0.143   0.000    0.00
  18.850   23.95   -1.61   -0.78   0.000   0.143   0.000    0.00
  18.900   23.63   -3.20   -0.07   0.000   0.143   0.000    0.00
  18.950   24.37   -1.25    0.45   0.000   0.143   0.000    0.00
  19.000   25.03   -0.89    0.18   0.000   0.143   0.000    0.00
  19.050   24.06   -0.40    0.21   0.000   0.143   0.000    0.00
  19.100   23.76    0.07    0.37   0.000   0.143   0.000    0.00
  19.150   24.58    0.76    0.19   0.000   0.143   0.000    0.00
  19.200   25.15    0.50    0.31   0.000   0.143   0.000    0.00
  19.250   26.37    1.21    0.45   0.000   0.143   0.000    0.00
  19.300   25.43    0.67   -0.02   0.000   0.143   0.000    0.00
  19.350   24.85    0.03    0.49   0.000   0.143   0.000    0.00
  19.400   25.07   -0.76    1.09   0.000   0.143   0.000    0.00
  19.450   25.12   -1.30    0.34   0.000   0.143   0.000    0.00
  19.500   24.90    0.82    0.07   0.000   0.143   0.000    0.00
  19.550   25.03    0.65   -0.64   0.000   0.143   0.000    0.00
  19.600   24.52    2.26    0.12   0.000   0.143   0.000    0.00
  19.650   24.86    2.03   -0.13   0.000   0.143   0.000    0.00
  19.700   24.94    1.61   -0.82   0.000   0.143   0.000    0.00
  19.750   25.33    1.23   -0.79   0.000   0.143   0.000    0.00
  19.800   25.08    2.33   -0.30   0.000   0.143   0.000    0.00
  19.850   24.19    3.86   -0.01   0.000   0.143   0.000    0.00
  19.900   24.21    4.53   -0.30   0.000   0.143   0.000    0.00
  19.950   25.05    4.85   -0.70   0.000   0.143   0.000    0.00
  20.000   24.22    2.92   -1.01   0.000   0.143   0.000    0.00
  20.050   24.57    2.46   -1.32   0.000   0.143   0.000    0.00
  20.100   24.89    1.41   -1.01   0.000   0.143   0.000    0.00
  20.150   24.94    2.06   -1.22   0.000   0.143   0.000    0.00
  20.200   24.67    1.80   -1.12   0.000   0.143   0.000    0.00
  20.250   25.09    2.59   -1.05   0.000   0.143   0.000    0.00
  20.300   24.85    1.05   -0.47   0.000   0.143   0.000    0.00
  20.350   25.57    1.21   -0.23   0.000   0.143   0.000    0.00
  20.400   25.78    1.92   -0.33   0.000   0.143   0.000    0.00
  20.450   25.56    1.88   -0.74   0.000   0.143   0.000    0.00
  20.500   25.61    0.94   -0.43   0.000   0.143   0.000    0.00
  20.550   25.59    1.43   -0.82   0.000   0.143   0.000    0.00
  20.600   25.68    0.59   -0.12   0.000   0.143   0.000    0.00
  20.650   25.55    1.15    0.07   0.000   0.143   0.000    0.00
  20.700   25.06    2.24   -0.01   0.000   0.143   0.000    0.00
  20.750   25.62    3.15    0.69   0.000   0.143   0.000    0.00
  20.800   26.43    2.34    1.39   0.000   0.143   0.000    0.00
  20.850   27.82    1.45    1.00   0.000   0.143   0.000    0.00
  20.900   27.48    2.01    1.12   0.000   0.143   0.000    0.00
  20.950   25.99    3.26    1.45   0.000   0.143   0.000    0.00
  21.000   25.80    4.82    1.48   0.000   0.143   0.000    0.00
  21.050   25.93    2.88    1.22   0.000   0.143   0.000    0.00
  21.100   25.65    1.86    0.99   0.000   0.143   0.000    0.00
  21.150   26.09    2.64    1.02   0.000   0.143   0.000    0.00
  21.200   26.21    2.64    1.44   0.000   0.143   0.000    0.00
  21.250   26.48    4.34    1.68   0.000   0.143   0.000    0.00
  21.300   26.01    5.61    1.87   0.000   0.143   0.000    0.00
  21.350   26.16    3.46    1.92   0.000   0.143   0.000    0.00
  21.400   25.83    4.31    2.04   0.000   0.143   0.000    0.00
  21.450   25.84    5.00    1.28   0.000   0.143   0.000    0.00
  21.500   25.90    5.48    0.89   0.000   0.143   0.000    0.00
  21.550   26.45    4.96    2.38   0.000   0.143   0.000    0.00
  21.600   27.09    4.59    2.46   0.000   0.143   0.000    0.00
  21.650   26.38    5.12    1.96   0.000   0.143   0.000    0.00
  21.700   26.49    4.94    1.79   0.000   0.143   0.000    0.00
  21.750   26.18    4.46    2.54   0.000   0.143   0.000    0.00
  21.800   26.04    5.28    2.21   0.000   0.143   0.000    0.00
  21.850   26.43    5.29    2.58   0.000   0.143   0.000    0.00
  21.900   26.09    6.77    2.48   0.000   0.143   0.000    0.00
  21.950   25.66    5.49    2.90   0.000   0.143   0.000    0.00
  22.000   26.18    5.30    1.97   0.000   0.143   0.000    0.00
  22.050   26.42    5.42    2.16   0.000   0.143   0.000    0.00
  22.100   25.77    6.32    2.19   0.000   0.143   0.000    0.00
  22.150   25.41    7.37    0.67   0.000   0.143   0.000    0.00
  22.200   25.41    8.38    0.30   0.000   0.143   0.000    0.00
  22.250   25.08    9.17    0.79   0.000   0.143   0.000    0.00
  22.300   24.19    8.32    0.15   0.000   0.143   0.000    0.00
  22.350   23.42    9.32   -0.38   0.000   0.143   0.000    0.00
  22.400   23.50    6.90   -0.24   0.000   0.143   0.000    0.00
  22.450   23.28    6.64   -0.88   0.000   0.143   0.000    0.00
  22.500   23.18    5.92   -0.42   0.000   0.143   0.000    0.00
  22.550   23.46    4.84   -0.08   0.000   0.143   0.000    0.00
  22.600   23.41    4.45   -0.22   0.000   0.143   0.000    0.00
  22.650   23.33    3.07   -1.08   0.000   0.143   0.000    0.00
  22.700   23.36    0.50   -0.19   0.000   0.143   0.000    0.00
  22.750   22.91    0.02   -0.91   0.000   0.143   0.000    0.00